<?xml version="1.0" encoding="UTF-8"?>

<!-- generated on 2023-08-01 14:06:47.479338 by osmWebWizard.py UNKNOWN
<configuration>
    <net-file value="/home/diegocdts/Sumo/2023-08-01-14-06-40/osm.net.xml.gz"/>
    <output-trip-file value="/home/diegocdts/Sumo/2023-08-01-14-06-40/osm.truck.trips.xml"/>
    <route-file value="/home/diegocdts/Sumo/2023-08-01-14-06-40/osm.truck.rou.xml"/>
    <prefix value="truck"/>
    <trip-attributes value="departLane=&quot;best&quot;"/>
    <fringe-start-attributes value="departSpeed=&quot;max&quot;"/>
    <vehicle-class value="truck"/>
    <fringe-factor value="50"/>
    <vclass value="truck"/>
    <via-edge-types value="highway.motorway,highway.motorway_link,highway.trunk_link,highway.primary_link,highway.secondary_link,highway.tertiary_link"/>
    <min-distance value="600.0"/>
    <min-distance.fringe value="10.0"/>
    <remove-loops value="True"/>
    <validate value="True"/>
    <end value="1200.0"/>
    <insertion-density value="8.0"/>
</configuration>
-->

<!-- generated on 2023-08-01 14:06:47 by Eclipse SUMO duarouter Version 1.18.0
<configuration xmlns:xsi="http://www.w3.org/2001/XMLSchema-instance" xsi:noNamespaceSchemaLocation="http://sumo.dlr.de/xsd/duarouterConfiguration.xsd">

    <input>
        <net-file value="/home/diegocdts/Sumo/2023-08-01-14-06-40/osm.net.xml.gz"/>
        <route-files value="/home/diegocdts/Sumo/2023-08-01-14-06-40/osm.truck.trips.xml"/>
    </input>

    <output>
        <output-file value="/home/diegocdts/Sumo/2023-08-01-14-06-40/osm.truck.trips.xml.tmp"/>
        <alternatives-output value="NUL"/>
        <write-trips value="true"/>
    </output>

    <processing>
        <remove-loops value="true"/>
    </processing>

    <time>
        <begin value="0.0"/>
        <end value="1200.0"/>
    </time>

    <report>
        <no-warnings value="true"/>
        <ignore-errors value="true"/>
        <no-step-log value="true"/>
    </report>

</configuration>
-->

<routes xmlns:xsi="http://www.w3.org/2001/XMLSchema-instance" xsi:noNamespaceSchemaLocation="http://sumo.dlr.de/xsd/routes_file.xsd">
    <vType id="truck_truck" vClass="truck"/>
    <trip id="truck0" type="truck_truck" depart="0.00" departLane="best" departSpeed="max" from="-172999054" to="-168379830#0"/>
    <trip id="truck1" type="truck_truck" depart="2.57" departLane="best" from="168367206#7" to="168653046#7"/>
    <trip id="truck2" type="truck_truck" depart="5.14" departLane="best" departSpeed="max" from="-58995998" to="-155474427#0"/>
    <trip id="truck3" type="truck_truck" depart="7.71" departLane="best" departSpeed="max" from="-161086998#10" to="155474579#1"/>
    <trip id="truck4" type="truck_truck" depart="10.28" departLane="best" from="-125222993#9" to="-168368483#0"/>
    <trip id="truck5" type="truck_truck" depart="12.85" departLane="best" departSpeed="max" from="155474645#0" to="155474639#0"/>
    <trip id="truck6" type="truck_truck" depart="15.42" departLane="best" from="-161086998#6" to="161087011#12"/>
    <trip id="truck7" type="truck_truck" depart="17.99" departLane="best" departSpeed="max" from="168379828#0" to="125357566#0"/>
    <trip id="truck8" type="truck_truck" depart="20.56" departLane="best" departSpeed="max" from="168379828#0" to="181942445"/>
    <trip id="truck9" type="truck_truck" depart="23.13" departLane="best" departSpeed="max" from="-184594838#3" to="-161087012#0"/>
    <trip id="truck10" type="truck_truck" depart="25.70" departLane="best" departSpeed="max" from="886841055" to="-964203363"/>
    <trip id="truck11" type="truck_truck" depart="28.27" departLane="best" departSpeed="max" from="-155474523" to="-155474636#0"/>
    <trip id="truck12" type="truck_truck" depart="30.84" departLane="best" departSpeed="max" from="168379837#0" to="168367203#7"/>
    <trip id="truck13" type="truck_truck" depart="33.41" departLane="best" departSpeed="max" from="168379828#0" to="181942456"/>
    <trip id="truck14" type="truck_truck" depart="35.98" departLane="best" from="144450740#4" to="944535893"/>
    <trip id="truck15" type="truck_truck" depart="38.55" departLane="best" departSpeed="max" from="168379834#0" to="168369538#2"/>
    <trip id="truck16" type="truck_truck" depart="41.12" departLane="best" from="172998998#1" to="161087004#0"/>
    <trip id="truck17" type="truck_truck" depart="43.69" departLane="best" from="161087008#1" to="-155474446#0"/>
    <trip id="truck18" type="truck_truck" depart="46.26" departLane="best" from="-168368483#1" to="-368152549#0"/>
    <trip id="truck19" type="truck_truck" depart="48.83" departLane="best" departSpeed="max" from="-155474502" to="-168379834#0"/>
    <trip id="truck20" type="truck_truck" depart="51.40" departLane="best" departSpeed="max" from="-155474547" to="-368152539#0"/>
    <trip id="truck21" type="truck_truck" depart="53.97" departLane="best" departSpeed="max" from="155474637#0" to="125222993#10"/>
    <trip id="truck22" type="truck_truck" depart="56.54" departLane="best" departSpeed="max" from="-368152542" to="-168371695#0"/>
    <trip id="truck23" type="truck_truck" depart="59.12" departLane="best" departSpeed="max" from="-168518333#1" to="902915623"/>
    <trip id="truck24" type="truck_truck" depart="61.69" departLane="best" departSpeed="max" from="155474645#0" to="168367206#2"/>
    <trip id="truck25" type="truck_truck" depart="64.26" departLane="best" departSpeed="max" from="-155474594#2" to="181942456"/>
    <trip id="truck26" type="truck_truck" depart="66.83" departLane="best" departSpeed="max" from="-155474590#2" to="155474425#5"/>
    <trip id="truck27" type="truck_truck" depart="69.40" departLane="best" departSpeed="max" from="964203363" to="168379833#21"/>
    <trip id="truck28" type="truck_truck" depart="71.97" departLane="best" departSpeed="max" from="155474427#0" to="172998998#0"/>
    <trip id="truck29" type="truck_truck" depart="74.54" departLane="best" departSpeed="max" from="168379837#0" to="368152539#3"/>
    <trip id="truck30" type="truck_truck" depart="77.11" departLane="best" from="168371695#2" to="-155474427#0"/>
    <trip id="truck31" type="truck_truck" depart="79.68" departLane="best" departSpeed="max" from="155480583" to="155474441#5"/>
    <trip id="truck32" type="truck_truck" depart="82.25" departLane="best" from="58996000#3" to="155474552#13"/>
    <trip id="truck33" type="truck_truck" depart="84.82" departLane="best" departSpeed="max" from="-168518333#1" to="-172998997"/>
    <trip id="truck34" type="truck_truck" depart="87.39" departLane="best" from="155474435#4" to="-181942460#0"/>
    <trip id="truck35" type="truck_truck" depart="89.96" departLane="best" departSpeed="max" from="155474448#0" to="181942451"/>
    <trip id="truck36" type="truck_truck" depart="92.53" departLane="best" departSpeed="max" from="-368152548#1" to="-168379830#0"/>
    <trip id="truck37" type="truck_truck" depart="95.10" departLane="best" departSpeed="max" from="964203363" to="155474590#2"/>
    <trip id="truck38" type="truck_truck" depart="97.67" departLane="best" departSpeed="max" from="-155474523" to="-155474446#0"/>
    <trip id="truck39" type="truck_truck" depart="100.24" departLane="best" departSpeed="max" from="168371695#0" to="155474466#8"/>
    <trip id="truck40" type="truck_truck" depart="102.81" departLane="best" from="-155474466#2" to="155474435#4"/>
    <trip id="truck41" type="truck_truck" depart="105.38" departLane="best" departSpeed="max" from="964203363" to="155474594#2"/>
    <trip id="truck42" type="truck_truck" depart="107.95" departLane="best" departSpeed="max" from="886841085" to="58996566#5"/>
    <trip id="truck43" type="truck_truck" depart="110.52" departLane="best" departSpeed="max" from="-1049114551" to="181942455"/>
    <trip id="truck44" type="truck_truck" depart="113.09" departLane="best" departSpeed="max" from="158699090#0" to="155474600#1"/>
    <trip id="truck45" type="truck_truck" depart="115.66" departLane="best" departSpeed="max" from="-168518333#1" to="168379833#6"/>
    <trip id="truck46" type="truck_truck" depart="118.23" departLane="best" departSpeed="max" from="-886841069#1" to="902915632"/>
    <trip id="truck47" type="truck_truck" depart="120.80" departLane="best" departSpeed="max" from="368152539#0" to="-181942460#0"/>
    <trip id="truck48" type="truck_truck" depart="123.37" departLane="best" departSpeed="max" from="-944535893" to="-168367751#0"/>
    <trip id="truck49" type="truck_truck" depart="125.94" departLane="best" from="566125217#2" to="58996568#4"/>
    <trip id="truck50" type="truck_truck" depart="128.51" departLane="best" departSpeed="max" from="-181942452" to="168379833#21"/>
    <trip id="truck51" type="truck_truck" depart="131.08" departLane="best" from="155474552#5" to="-161087008#0"/>
    <trip id="truck52" type="truck_truck" depart="133.65" departLane="best" from="168367753#7" to="155474600#1"/>
    <trip id="truck53" type="truck_truck" depart="136.22" departLane="best" departSpeed="max" from="168369473" to="155474594#2"/>
    <trip id="truck54" type="truck_truck" depart="138.79" departLane="best" from="-1049111723#1" to="-886841055"/>
    <trip id="truck55" type="truck_truck" depart="141.36" departLane="best" departSpeed="max" from="-125222993#10" to="887038467#1"/>
    <trip id="truck56" type="truck_truck" depart="143.93" departLane="best" departSpeed="max" from="368152539#0" to="58995998"/>
    <trip id="truck57" type="truck_truck" depart="146.50" departLane="best" departSpeed="max" from="-181942455" to="-155474448#0"/>
    <trip id="truck58" type="truck_truck" depart="149.07" departLane="best" departSpeed="max" from="368152539#0" to="902915630"/>
    <trip id="truck59" type="truck_truck" depart="151.64" departLane="best" departSpeed="max" from="-155474502" to="155474561"/>
    <trip id="truck60" type="truck_truck" depart="154.21" departLane="best" departSpeed="max" from="-155474466#8" to="296067124"/>
    <trip id="truck61" type="truck_truck" depart="156.78" departLane="best" departSpeed="max" from="168368483#0" to="-155474646#7"/>
    <trip id="truck62" type="truck_truck" depart="159.35" departLane="best" departSpeed="max" from="-902915630" to="155480505"/>
    <trip id="truck63" type="truck_truck" depart="161.92" departLane="best" departSpeed="max" from="-168518333#1" to="58996568#8"/>
    <trip id="truck64" type="truck_truck" depart="164.49" departLane="best" departSpeed="max" from="-58995998" to="-168371695#7"/>
    <trip id="truck65" type="truck_truck" depart="167.06" departLane="best" departSpeed="max" from="155474425#0" to="181942456"/>
    <trip id="truck66" type="truck_truck" depart="169.63" departLane="best" departSpeed="max" from="-155480505" to="-733799057"/>
    <trip id="truck67" type="truck_truck" depart="172.20" departLane="best" departSpeed="max" from="964203363" to="168379836#2"/>
    <trip id="truck68" type="truck_truck" depart="174.78" departLane="best" departSpeed="max" from="-58996568#8" to="155474590#2"/>
    <trip id="truck69" type="truck_truck" depart="177.35" departLane="best" departSpeed="max" from="-155474552#18" to="-168379830#0"/>
    <trip id="truck70" type="truck_truck" depart="179.92" departLane="best" departSpeed="max" from="-184594838#3" to="161087011#12"/>
    <trip id="truck71" type="truck_truck" depart="182.49" departLane="best" from="168371695#7" to="-168379830#0"/>
    <trip id="truck72" type="truck_truck" depart="185.06" departLane="best" departSpeed="max" from="-155474466#8" to="168379833#21"/>
    <trip id="truck73" type="truck_truck" depart="187.63" departLane="best" from="168371695#12" to="886841069#1"/>
    <trip id="truck74" type="truck_truck" depart="190.20" departLane="best" from="168653051#1" to="-155474455#0"/>
    <trip id="truck75" type="truck_truck" depart="192.77" departLane="best" departSpeed="max" from="-168379833#21" to="168518333#1"/>
    <trip id="truck76" type="truck_truck" depart="195.34" departLane="best" departSpeed="max" from="-161086998#10" to="-155480583"/>
    <trip id="truck77" type="truck_truck" depart="197.91" departLane="best" departSpeed="max" from="733799057" to="161086998#10"/>
    <trip id="truck78" type="truck_truck" depart="200.48" departLane="best" departSpeed="max" from="-902915623" to="368152542"/>
    <trip id="truck79" type="truck_truck" depart="203.05" departLane="best" departSpeed="max" from="168379828#0" to="-168368483#0"/>
    <trip id="truck80" type="truck_truck" depart="205.62" departLane="best" departSpeed="max" from="-155474523" to="155474502"/>
    <trip id="truck81" type="truck_truck" depart="208.19" departLane="best" departSpeed="max" from="-58995998" to="155474552#18"/>
    <trip id="truck82" type="truck_truck" depart="210.76" departLane="best" from="161087013#1" to="168653046#7"/>
    <trip id="truck83" type="truck_truck" depart="213.33" departLane="best" from="944524145" to="-155474636#0"/>
    <trip id="truck84" type="truck_truck" depart="215.90" departLane="best" departSpeed="max" from="-368152560" to="-964203363"/>
    <trip id="truck85" type="truck_truck" depart="218.47" departLane="best" from="172998998#2" to="-172998997"/>
    <trip id="truck86" type="truck_truck" depart="221.04" departLane="best" departSpeed="max" from="-155474600#1" to="155474547"/>
    <trip id="truck87" type="truck_truck" depart="223.61" departLane="best" departSpeed="max" from="-58995998" to="-368152539#0"/>
    <trip id="truck88" type="truck_truck" depart="226.18" departLane="best" departSpeed="max" from="-168379836#2" to="886841095"/>
    <trip id="truck89" type="truck_truck" depart="228.75" departLane="best" departSpeed="max" from="155474427#0" to="-155474448#0"/>
    <trip id="truck90" type="truck_truck" depart="231.32" departLane="best" from="-964203364#1" to="58995998"/>
    <trip id="truck91" type="truck_truck" depart="233.89" departLane="best" departSpeed="max" from="168379837#0" to="-161087013#0"/>
    <trip id="truck92" type="truck_truck" depart="236.46" departLane="best" departSpeed="max" from="-902915632" to="-168379829#15"/>
    <trip id="truck93" type="truck_truck" depart="239.03" departLane="best" departSpeed="max" from="-368152542" to="944535898"/>
    <trip id="truck94" type="truck_truck" depart="241.60" departLane="best" departSpeed="max" from="-168518333#1" to="368152542"/>
    <trip id="truck95" type="truck_truck" depart="244.17" departLane="best" departSpeed="max" from="-886841069#1" to="155474466#8"/>
    <trip id="truck96" type="truck_truck" depart="246.74" departLane="best" departSpeed="max" from="886841055" to="944567345#0"/>
    <trip id="truck97" type="truck_truck" depart="249.31" departLane="best" departSpeed="max" from="155474427#0" to="181942455"/>
    <trip id="truck98" type="truck_truck" depart="251.88" departLane="best" departSpeed="max" from="-155474579#1" to="-368152554"/>
    <trip id="truck99" type="truck_truck" depart="254.45" departLane="best" departSpeed="max" from="886841085" to="161087011#0"/>
    <trip id="truck100" type="truck_truck" depart="257.02" departLane="best" departSpeed="max" from="155474425#0" to="-181942460#1"/>
    <trip id="truck101" type="truck_truck" depart="259.59" departLane="best" departSpeed="max" from="-155474450#4" to="161087011#12"/>
    <trip id="truck102" type="truck_truck" depart="262.16" departLane="best" departSpeed="max" from="-944535893" to="58996565#10"/>
    <trip id="truck103" type="truck_truck" depart="264.73" departLane="best" departSpeed="max" from="-155474579#1" to="902915632"/>
    <trip id="truck104" type="truck_truck" depart="267.30" departLane="best" departSpeed="max" from="-155474502" to="-168367751#0"/>
    <trip id="truck105" type="truck_truck" depart="269.87" departLane="best" departSpeed="max" from="155474455#0" to="168653046#7"/>
    <trip id="truck106" type="truck_truck" depart="272.44" departLane="best" from="-168379833#14" to="-155474645#0"/>
    <trip id="truck107" type="truck_truck" depart="275.01" departLane="best" departSpeed="max" from="155474455#0" to="168369538#7"/>
    <trip id="truck108" type="truck_truck" depart="277.58" departLane="best" departSpeed="max" from="-58995998" to="161087011#12"/>
    <trip id="truck109" type="truck_truck" depart="280.15" departLane="best" departSpeed="max" from="-944535898" to="902915623"/>
    <trip id="truck110" type="truck_truck" depart="282.72" departLane="best" departSpeed="max" from="-155480505" to="181942452"/>
    <trip id="truck111" type="truck_truck" depart="285.29" departLane="best" departSpeed="max" from="-168379833#21" to="155474441#6"/>
    <trip id="truck112" type="truck_truck" depart="287.86" departLane="best" departSpeed="max" from="158699086#0" to="-368152554"/>
    <trip id="truck113" type="truck_truck" depart="290.43" departLane="best" departSpeed="max" from="-181942456" to="184594838#3"/>
    <trip id="truck114" type="truck_truck" depart="293.01" departLane="best" departSpeed="max" from="-155474466#8" to="155474552#10"/>
    <trip id="truck115" type="truck_truck" depart="295.58" departLane="best" departSpeed="max" from="964203363" to="944567347#0"/>
    <trip id="truck116" type="truck_truck" depart="298.15" departLane="best" departSpeed="max" from="-155474466#8" to="-168379829#12"/>
    <trip id="truck117" type="truck_truck" depart="300.72" departLane="best" departSpeed="max" from="-168518333#1" to="902915623"/>
    <trip id="truck118" type="truck_truck" depart="303.29" departLane="best" departSpeed="max" from="368152539#0" to="58996568#8"/>
    <trip id="truck119" type="truck_truck" depart="305.86" departLane="best" departSpeed="max" from="-368152542" to="-161087012#0"/>
    <trip id="truck120" type="truck_truck" depart="308.43" departLane="best" departSpeed="max" from="168379834#0" to="181942445"/>
    <trip id="truck121" type="truck_truck" depart="311.00" departLane="best" from="155474556#17" to="944535898"/>
    <trip id="truck122" type="truck_truck" depart="313.57" departLane="best" from="155474646#1" to="144450740#10"/>
    <trip id="truck123" type="truck_truck" depart="316.14" departLane="best" departSpeed="max" from="168379830#0" to="-368152554"/>
    <trip id="truck124" type="truck_truck" depart="318.71" departLane="best" departSpeed="max" from="155480583" to="902915623"/>
    <trip id="truck125" type="truck_truck" depart="321.28" departLane="best" departSpeed="max" from="-155474556#18" to="-155474639#4"/>
    <trip id="truck126" type="truck_truck" depart="323.85" departLane="best" departSpeed="max" from="-155474547" to="155480505"/>
    <trip id="truck127" type="truck_truck" depart="326.42" departLane="best" departSpeed="max" from="-168518333#1" to="168367203#7"/>
    <trip id="truck128" type="truck_truck" depart="328.99" departLane="best" departSpeed="max" from="161087012#0" to="-168371695#0"/>
    <trip id="truck129" type="truck_truck" depart="331.56" departLane="best" departSpeed="max" from="155474637#0" to="-181942460#0"/>
    <trip id="truck130" type="truck_truck" depart="334.13" departLane="best" departSpeed="max" from="-902915632" to="886841069#1"/>
    <trip id="truck131" type="truck_truck" depart="336.70" departLane="best" departSpeed="max" from="168379837#0" to="-155474632#4"/>
    <trip id="truck132" type="truck_truck" depart="339.27" departLane="best" departSpeed="max" from="-58995998" to="-368152539#0"/>
    <trip id="truck133" type="truck_truck" depart="341.84" departLane="best" departSpeed="max" from="-1049114551" to="368152539#2"/>
    <trip id="truck134" type="truck_truck" depart="344.41" departLane="best" departSpeed="max" from="155474637#0" to="-181942460#0"/>
    <trip id="truck135" type="truck_truck" depart="346.98" departLane="best" departSpeed="max" from="168367751#0" to="155480505"/>
    <trip id="truck136" type="truck_truck" depart="349.55" departLane="best" from="-155474468#1" to="58996570#10"/>
    <trip id="truck137" type="truck_truck" depart="352.12" departLane="best" departSpeed="max" from="168379834#0" to="161087011#12"/>
    <trip id="truck138" type="truck_truck" depart="354.69" departLane="best" from="155474571#2" to="-155474646#2"/>
    <trip id="truck139" type="truck_truck" depart="357.26" departLane="best" departSpeed="max" from="-181942455" to="886841052#2"/>
    <trip id="truck140" type="truck_truck" depart="359.83" departLane="best" departSpeed="max" from="168371695#0" to="58996566#5"/>
    <trip id="truck141" type="truck_truck" depart="362.40" departLane="best" departSpeed="max" from="368152554" to="-168371695#1"/>
    <trip id="truck142" type="truck_truck" depart="364.97" departLane="best" departSpeed="max" from="-168379836#2" to="-155474636#1"/>
    <trip id="truck143" type="truck_truck" depart="367.54" departLane="best" departSpeed="max" from="168369473" to="58996570#10"/>
    <trip id="truck144" type="truck_truck" depart="370.11" departLane="best" departSpeed="max" from="-368152560" to="-168371695#12"/>
    <trip id="truck145" type="truck_truck" depart="372.68" departLane="best" departSpeed="max" from="-155474579#1" to="887038470#1"/>
    <trip id="truck146" type="truck_truck" depart="375.25" departLane="best" departSpeed="max" from="181942460#0" to="944535897"/>
    <trip id="truck147" type="truck_truck" depart="377.82" departLane="best" from="168653046#3" to="58996568#8"/>
    <trip id="truck148" type="truck_truck" depart="380.39" departLane="best" departSpeed="max" from="-125222993#10" to="181942456"/>
    <trip id="truck149" type="truck_truck" depart="382.96" departLane="best" departSpeed="max" from="-181942458" to="892485461"/>
    <trip id="truck150" type="truck_truck" depart="385.53" departLane="best" from="168379828#4" to="-181942460#0"/>
    <trip id="truck151" type="truck_truck" depart="388.10" departLane="best" departSpeed="max" from="168371695#0" to="-155474637#0"/>
    <trip id="truck152" type="truck_truck" depart="390.67" departLane="best" departSpeed="max" from="181942460#0" to="58996566#1"/>
    <trip id="truck153" type="truck_truck" depart="393.24" departLane="best" from="161087002#6" to="368152560"/>
    <trip id="truck154" type="truck_truck" depart="395.81" departLane="best" departSpeed="max" from="-886841069#1" to="-58996006#0"/>
    <trip id="truck155" type="truck_truck" depart="398.38" departLane="best" departSpeed="max" from="168371695#0" to="-168379833#15"/>
    <trip id="truck156" type="truck_truck" depart="400.95" departLane="best" departSpeed="max" from="-125222993#10" to="-168368483#0"/>
    <trip id="truck157" type="truck_truck" depart="403.52" departLane="best" departSpeed="max" from="-181942458" to="58996566#5"/>
    <trip id="truck158" type="truck_truck" depart="406.09" departLane="best" departSpeed="max" from="886841085" to="-368152539#0"/>
    <trip id="truck159" type="truck_truck" depart="408.67" departLane="best" from="155474639#1" to="155474450#4"/>
    <trip id="truck160" type="truck_truck" depart="411.24" departLane="best" from="887038467#2" to="155474600#1"/>
    <trip id="truck161" type="truck_truck" depart="413.81" departLane="best" from="823646140#0" to="155474639#4"/>
    <trip id="truck162" type="truck_truck" depart="416.38" departLane="best" departSpeed="max" from="886841085" to="-168367751#0"/>
    <trip id="truck163" type="truck_truck" depart="418.95" departLane="best" departSpeed="max" from="886841055" to="-181942460#0"/>
    <trip id="truck164" type="truck_truck" depart="421.52" departLane="best" departSpeed="max" from="-155474547" to="155474504"/>
    <trip id="truck165" type="truck_truck" depart="424.09" departLane="best" departSpeed="max" from="161087013#0" to="-733799057"/>
    <trip id="truck166" type="truck_truck" depart="426.66" departLane="best" from="155474552#0" to="155474590#2"/>
    <trip id="truck167" type="truck_truck" depart="429.23" departLane="best" departSpeed="max" from="-368152547" to="-161087002#2"/>
    <trip id="truck168" type="truck_truck" depart="431.80" departLane="best" departSpeed="max" from="-168379836#2" to="181942452"/>
    <trip id="truck169" type="truck_truck" depart="434.37" departLane="best" departSpeed="max" from="-1049114551" to="886841095"/>
    <trip id="truck170" type="truck_truck" depart="436.94" departLane="best" departSpeed="max" from="155474425#0" to="181942455"/>
    <trip id="truck171" type="truck_truck" depart="439.51" departLane="best" departSpeed="max" from="168367751#0" to="168635122#2"/>
    <trip id="truck172" type="truck_truck" depart="442.08" departLane="best" departSpeed="max" from="-368152539#3" to="-155474455#0"/>
    <trip id="truck173" type="truck_truck" depart="444.65" departLane="best" departSpeed="max" from="155480583" to="-886841055"/>
    <trip id="truck174" type="truck_truck" depart="447.22" departLane="best" departSpeed="max" from="-181942455" to="58996565#10"/>
    <trip id="truck175" type="truck_truck" depart="449.79" departLane="best" departSpeed="max" from="161087013#0" to="-368152554"/>
    <trip id="truck176" type="truck_truck" depart="452.36" departLane="best" departSpeed="max" from="-181942455" to="-155474453#0"/>
    <trip id="truck177" type="truck_truck" depart="454.93" departLane="best" departSpeed="max" from="-155474556#18" to="155474466#8"/>
    <trip id="truck178" type="truck_truck" depart="457.50" departLane="best" from="825973898#3" to="168653046#7"/>
    <trip id="truck179" type="truck_truck" depart="460.07" departLane="best" departSpeed="max" from="-181942452" to="155474646#4"/>
    <trip id="truck180" type="truck_truck" depart="462.64" departLane="best" departSpeed="max" from="-58996566#5" to="161087011#11"/>
    <trip id="truck181" type="truck_truck" depart="465.21" departLane="best" from="-155474646#6" to="155474552#18"/>
    <trip id="truck182" type="truck_truck" depart="467.78" departLane="best" departSpeed="max" from="-58996568#8" to="168379829#15"/>
    <trip id="truck183" type="truck_truck" depart="470.35" departLane="best" departSpeed="max" from="168371695#0" to="-161087013#0"/>
    <trip id="truck184" type="truck_truck" depart="472.92" departLane="best" departSpeed="max" from="-155474502" to="155474590#2"/>
    <trip id="truck185" type="truck_truck" depart="475.49" departLane="best" departSpeed="max" from="155474637#0" to="-948004641#1"/>
    <trip id="truck186" type="truck_truck" depart="478.06" departLane="best" departSpeed="max" from="168379830#0" to="184594838#3"/>
    <trip id="truck187" type="truck_truck" depart="480.63" departLane="best" departSpeed="max" from="158699086#0" to="-168379830#0"/>
    <trip id="truck188" type="truck_truck" depart="483.20" departLane="best" departSpeed="max" from="-155480505" to="-155474427#0"/>
    <trip id="truck189" type="truck_truck" depart="485.77" departLane="best" departSpeed="max" from="168379837#0" to="-155474455#1"/>
    <trip id="truck190" type="truck_truck" depart="488.34" departLane="best" departSpeed="max" from="-58995998" to="168379833#20"/>
    <trip id="truck191" type="truck_truck" depart="490.91" departLane="best" from="-155474637#2" to="181942445"/>
    <trip id="truck192" type="truck_truck" depart="493.48" departLane="best" departSpeed="max" from="-944535893" to="-168379840#1"/>
    <trip id="truck193" type="truck_truck" depart="496.05" departLane="best" departSpeed="max" from="155480583" to="-125222993#5"/>
    <trip id="truck194" type="truck_truck" depart="498.62" departLane="best" departSpeed="max" from="168367753#0" to="-304641093"/>
    <trip id="truck195" type="truck_truck" depart="501.19" departLane="best" departSpeed="max" from="-155474547" to="155474502"/>
    <trip id="truck196" type="truck_truck" depart="503.76" departLane="best" departSpeed="max" from="-155474594#2" to="902915632"/>
    <trip id="truck197" type="truck_truck" depart="506.33" departLane="best" departSpeed="max" from="-944535898" to="-155474448#0"/>
    <trip id="truck198" type="truck_truck" depart="508.90" departLane="best" departSpeed="max" from="-168379836#2" to="58996565#10"/>
    <trip id="truck199" type="truck_truck" depart="511.47" departLane="best" departSpeed="max" from="-886841069#1" to="368152547"/>
    <trip id="truck200" type="truck_truck" depart="514.04" departLane="best" departSpeed="max" from="158699086#0" to="944535898"/>
    <trip id="truck201" type="truck_truck" depart="516.61" departLane="best" departSpeed="max" from="155474455#0" to="902915630"/>
    <trip id="truck202" type="truck_truck" depart="519.18" departLane="best" departSpeed="max" from="368152549#0" to="168367753#1"/>
    <trip id="truck203" type="truck_truck" depart="521.75" departLane="best" departSpeed="max" from="161087013#0" to="155474579#1"/>
    <trip id="truck204" type="truck_truck" depart="524.33" departLane="best" departSpeed="max" from="168379834#0" to="-155474646#4"/>
    <trip id="truck205" type="truck_truck" depart="526.90" departLane="best" from="-368152552" to="181942458"/>
    <trip id="truck206" type="truck_truck" depart="529.47" departLane="best" departSpeed="max" from="-902915630" to="-181942460#0"/>
    <trip id="truck207" type="truck_truck" depart="532.04" departLane="best" from="168379833#4" to="168379833#21"/>
    <trip id="truck208" type="truck_truck" depart="534.61" departLane="best" departSpeed="max" from="168368483#0" to="155474594#2"/>
    <trip id="truck209" type="truck_truck" depart="537.18" departLane="best" departSpeed="max" from="155474636#0" to="-368152539#0"/>
    <trip id="truck210" type="truck_truck" depart="539.75" departLane="best" departSpeed="max" from="-155474502" to="-368152549#0"/>
    <trip id="truck211" type="truck_truck" depart="542.32" departLane="best" departSpeed="max" from="-168518333#1" to="823635623#1"/>
    <trip id="truck212" type="truck_truck" depart="544.89" departLane="best" departSpeed="max" from="155474425#0" to="-155480583"/>
    <trip id="truck213" type="truck_truck" depart="547.46" departLane="best" from="-168379829#12" to="172999054"/>
    <trip id="truck214" type="truck_truck" depart="550.03" departLane="best" from="161087011#10" to="-155474455#0"/>
    <trip id="truck215" type="truck_truck" depart="552.60" departLane="best" departSpeed="max" from="-58995998" to="-168371695#0"/>