<?xml version="1.0" encoding="UTF-8"?>

<!-- generated on 2023-08-25 10:04:43.650070 by osmWebWizard.py UNKNOWN
<configuration>
    <net-file value="/home/diegocdts/Sumo/_uruguaiana/osm.net.xml.gz"/>
    <output-trip-file value="/home/diegocdts/Sumo/_uruguaiana/osm.bus.trips.xml"/>
    <route-file value="/home/diegocdts/Sumo/_uruguaiana/osm.bus.rou.xml"/>
    <prefix value="bus"/>
    <trip-attributes value="departLane=&quot;best&quot;"/>
    <fringe-start-attributes value="departSpeed=&quot;max&quot;"/>
    <vehicle-class value="bus"/>
    <fringe-factor value="5"/>
    <vclass value="bus"/>
    <via-edge-types value="highway.motorway,highway.motorway_link,highway.trunk_link,highway.primary_link,highway.secondary_link,highway.tertiary_link"/>
    <min-distance value="600.0"/>
    <min-distance.fringe value="10.0"/>
    <remove-loops value="True"/>
    <validate value="True"/>
    <insertion-density value="4.0"/>
</configuration>
-->

<!-- generated on 2023-08-25 10:04:43 by Eclipse SUMO duarouter Version 1.18.0
<configuration xmlns:xsi="http://www.w3.org/2001/XMLSchema-instance" xsi:noNamespaceSchemaLocation="http://sumo.dlr.de/xsd/duarouterConfiguration.xsd">

    <input>
        <net-file value="/home/diegocdts/Sumo/_uruguaiana/osm.net.xml.gz"/>
        <route-files value="/home/diegocdts/Sumo/_uruguaiana/osm.bus.trips.xml"/>
    </input>

    <output>
        <output-file value="/home/diegocdts/Sumo/_uruguaiana/osm.bus.trips.xml.tmp"/>
        <alternatives-output value="NUL"/>
        <write-trips value="true"/>
    </output>

    <processing>
        <remove-loops value="true"/>
    </processing>

    <time>
        <begin value="0.0"/>
        <end value="3600.0"/>
    </time>

    <report>
        <no-warnings value="true"/>
        <ignore-errors value="true"/>
        <no-step-log value="true"/>
    </report>

</configuration>
-->

<routes xmlns:xsi="http://www.w3.org/2001/XMLSchema-instance" xsi:noNamespaceSchemaLocation="http://sumo.dlr.de/xsd/routes_file.xsd">
    <vType id="bus_bus" vClass="bus"/>
    <trip id="bus0" type="bus_bus" depart="0.00" departLane="best" from="168367206#3" to="125222993#1"/>
    <trip id="bus1" type="bus_bus" depart="9.55" departLane="best" departSpeed="max" from="-368152560" to="-168367751"/>
    <trip id="bus2" type="bus_bus" depart="19.10" departLane="best" from="168379829#7" to="168369538#10"/>
    <trip id="bus3" type="bus_bus" depart="28.64" departLane="best" from="58996570#2" to="-155474455#0"/>
    <trip id="bus4" type="bus_bus" depart="38.19" departLane="best" departSpeed="max" from="155474455#0" to="125222993#5"/>
    <trip id="bus5" type="bus_bus" depart="47.74" departLane="best" from="-125222993#2" to="-161087013#1"/>
    <trip id="bus6" type="bus_bus" depart="57.29" departLane="best" departSpeed="max" from="168367751" to="158699090#2"/>
    <trip id="bus7" type="bus_bus" depart="66.84" departLane="best" from="168379829#6" to="167409213"/>
    <trip id="bus8" type="bus_bus" depart="76.39" departLane="best" from="168663754" to="1049112519#1"/>
    <trip id="bus9" type="bus_bus" depart="85.93" departLane="best" departSpeed="max" from="1050275127#0" to="-155474636#0"/>
    <trip id="bus10" type="bus_bus" depart="95.48" departLane="best" from="886841093#3" to="-964203364#0"/>
    <trip id="bus11" type="bus_bus" depart="105.03" departLane="best" from="58996000#2" to="168367188#1"/>
    <trip id="bus12" type="bus_bus" depart="114.58" departLane="best" from="168379828#3" to="168379833#16"/>
    <trip id="bus13" type="bus_bus" depart="124.13" departLane="best" departSpeed="max" from="158699090#0" to="944535893"/>
    <trip id="bus14" type="bus_bus" depart="133.68" departLane="best" departSpeed="max" from="155474427" to="161086997#0"/>
    <trip id="bus15" type="bus_bus" depart="143.22" departLane="best" from="368152555#0" to="168367203#2"/>
    <trip id="bus17" type="bus_bus" depart="162.32" departLane="best" from="158699086#6" to="-155474427"/>
    <trip id="bus18" type="bus_bus" depart="171.87" departLane="best" from="-168379833#10" to="-368152551"/>
    <trip id="bus19" type="bus_bus" depart="181.42" departLane="best" departSpeed="max" from="-155474441#5" to="168379829#11"/>
    <trip id="bus20" type="bus_bus" depart="190.97" departLane="best" departSpeed="max" from="-155474466#3" to="168379833#9"/>
    <trip id="bus21" type="bus_bus" depart="200.51" departLane="best" from="168367206#1" to="125222993#1"/>
    <trip id="bus22" type="bus_bus" depart="210.06" departLane="best" from="-368152555#2" to="886841091#5"/>
    <trip id="bus23" type="bus_bus" depart="219.61" departLane="best" from="168367750#3" to="125222993#0"/>
    <trip id="bus24" type="bus_bus" depart="229.16" departLane="best" from="155474639#4" to="168379833#16"/>
    <trip id="bus25" type="bus_bus" depart="238.71" departLane="best" from="155474636#2" to="155474421#0"/>
    <trip id="bus26" type="bus_bus" depart="248.26" departLane="best" departSpeed="max" from="161087002#0" to="168369538#6"/>
    <trip id="bus27" type="bus_bus" depart="257.80" departLane="best" from="58995994#4" to="168653046#4"/>
    <trip id="bus28" type="bus_bus" depart="267.35" departLane="best" from="-168379833#11" to="-155474425#0"/>
    <trip id="bus29" type="bus_bus" depart="276.90" departLane="best" departSpeed="max" from="-944535893" to="-168379833#2"/>
    <trip id="bus30" type="bus_bus" depart="286.45" departLane="best" departSpeed="max" from="-168379829#13" to="886841093#3"/>
    <trip id="bus31" type="bus_bus" depart="296.00" departLane="best" from="58996565#1" to="-58996006#0"/>
    <trip id="bus32" type="bus_bus" depart="305.55" departLane="best" departSpeed="max" from="168367751" to="-155474435#1"/>
    <trip id="bus33" type="bus_bus" depart="315.09" departLane="best" from="823589201#1" to="155474516"/>
    <trip id="bus34" type="bus_bus" depart="324.64" departLane="best" departSpeed="max" from="161087002#0" to="-168379833#14"/>
    <trip id="bus35" type="bus_bus" depart="334.19" departLane="best" from="161087011#9" to="823589201#0"/>
    <trip id="bus36" type="bus_bus" depart="343.74" departLane="best" from="155474435#8" to="-168367751"/>
    <trip id="bus37" type="bus_bus" depart="353.29" departLane="best" departSpeed="max" from="964203364#0" to="155474599"/>
    <trip id="bus38" type="bus_bus" depart="362.84" departLane="best" from="-155474455#4" to="-155474427"/>
    <trip id="bus39" type="bus_bus" depart="372.38" departLane="best" from="155474532" to="168367203#4"/>
    <trip id="bus40" type="bus_bus" depart="381.93" departLane="best" departSpeed="max" from="168379838#0" to="155474437#6"/>
    <trip id="bus41" type="bus_bus" depart="391.48" departLane="best" from="-155474437#5" to="155474421#1"/>
    <trip id="bus42" type="bus_bus" depart="401.03" departLane="best" departSpeed="max" from="964203364#0" to="155474645#1"/>
    <trip id="bus43" type="bus_bus" depart="410.58" departLane="best" departSpeed="max" from="892485463#0" to="58996565#8"/>
    <trip id="bus44" type="bus_bus" depart="420.13" departLane="best" from="-122119743#1" to="168379833#10"/>
    <trip id="bus45" type="bus_bus" depart="429.67" departLane="best" from="-368152555#2" to="168367750#3"/>
    <trip id="bus46" type="bus_bus" depart="439.22" departLane="best" from="-155474537" to="155474441#5"/>
    <trip id="bus47" type="bus_bus" depart="448.77" departLane="best" from="-155474552#11" to="892485463#2"/>
    <trip id="bus48" type="bus_bus" depart="458.32" departLane="best" from="58996565#1" to="168379833#14"/>
    <trip id="bus49" type="bus_bus" depart="467.87" departLane="best" from="155474639#1" to="-155474645#0"/>
    <trip id="bus50" type="bus_bus" depart="477.42" departLane="best" from="-823589201#0" to="58996566#2"/>
    <trip id="bus51" type="bus_bus" depart="486.96" departLane="best" departSpeed="max" from="-902915630" to="168367750#2"/>
    <trip id="bus52" type="bus_bus" depart="496.51" departLane="best" from="168379833#3" to="158699086#7"/>
    <trip id="bus53" type="bus_bus" depart="506.06" departLane="best" departSpeed="max" from="168379837#0" to="155474645#1"/>
    <trip id="bus54" type="bus_bus" depart="515.61" departLane="best" from="-1049111723#0" to="-886841056#0"/>
    <trip id="bus55" type="bus_bus" depart="525.16" departLane="best" departSpeed="max" from="-122119743#4" to="886841091#4"/>
    <trip id="bus56" type="bus_bus" depart="534.71" departLane="best" from="58996565#3" to="58996000#6"/>
    <trip id="bus57" type="bus_bus" depart="544.25" departLane="best" departSpeed="max" from="-902915632" to="-155474435#1"/>
    <trip id="bus58" type="bus_bus" depart="553.80" departLane="best" departSpeed="max" from="-155474441#5" to="155474552#5"/>
    <trip id="bus59" type="bus_bus" depart="563.35" departLane="best" departSpeed="max" from="-155474437#6" to="-168379838#1"/>
    <trip id="bus60" type="bus_bus" depart="572.90" departLane="best" from="168379833#5" to="155474552#14"/>
    <trip id="bus61" type="bus_bus" depart="582.45" departLane="best" from="-368152555#0" to="58996566#2"/>
    <trip id="bus62" type="bus_bus" depart="592.00" departLane="best" departSpeed="max" from="155474455#0" to="-167409214#7"/>
    <trip id="bus63" type="bus_bus" depart="601.54" departLane="best" departSpeed="max" from="158699090#0" to="168379833#16"/>
    <trip id="bus64" type="bus_bus" depart="611.09" departLane="best" from="-168367188#1" to="-58996006#0"/>
    <trip id="bus65" type="bus_bus" depart="620.64" departLane="best" departSpeed="max" from="964203364#0" to="168367753#10"/>
    <trip id="bus66" type="bus_bus" depart="630.19" departLane="best" from="155474520" to="-155474636#1"/>
    <trip id="bus67" type="bus_bus" depart="639.74" departLane="best" from="-155474552#14" to="-168379829#0"/>
    <trip id="bus68" type="bus_bus" depart="649.29" departLane="best" departSpeed="max" from="1050275127#0" to="167409213"/>
    <trip id="bus69" type="bus_bus" depart="658.83" departLane="best" from="168379833#12" to="-168367751"/>
    <trip id="bus70" type="bus_bus" depart="668.38" departLane="best" departSpeed="max" from="-155474437#6" to="168367206#2"/>
    <trip id="bus71" type="bus_bus" depart="677.93" departLane="best" from="-168379833#11" to="886841052#3"/>
    <trip id="bus72" type="bus_bus" depart="687.48" departLane="best" from="58996003#2" to="-155474437#0"/>
    <trip id="bus73" type="bus_bus" depart="697.03" departLane="best" departSpeed="max" from="-168379833#17" to="168367753#7"/>
    <trip id="bus74" type="bus_bus" depart="706.58" departLane="best" from="886841056#0" to="161087011#10"/>
    <trip id="bus75" type="bus_bus" depart="716.12" departLane="best" from="155474571#0" to="168653051#2"/>
    <trip id="bus76" type="bus_bus" depart="725.67" departLane="best" from="168653051#1" to="-161087002#6"/>
    <trip id="bus77" type="bus_bus" depart="735.22" departLane="best" departSpeed="max" from="-155474466#3" to="155474441#4"/>
    <trip id="bus78" type="bus_bus" depart="744.77" departLane="best" departSpeed="max" from="155474455#0" to="-155474552#10"/>
    <trip id="bus79" type="bus_bus" depart="754.32" departLane="best" from="168379829#2" to="168369537"/>
    <trip id="bus80" type="bus_bus" depart="763.87" departLane="best" from="963626872#0" to="-155474455#4"/>
    <trip id="bus81" type="bus_bus" depart="773.41" departLane="best" from="155474437#1" to="-964203364#1"/>
    <trip id="bus83" type="bus_bus" depart="792.51" departLane="best" from="-167409214#3" to="155474466#2"/>
    <trip id="bus84" type="bus_bus" depart="802.06" departLane="best" departSpeed="max" from="155474455#0" to="-168379838#0"/>
    <trip id="bus85" type="bus_bus" depart="811.61" departLane="best" from="-168379833#5" to="886841091#0"/>
    <trip id="bus86" type="bus_bus" depart="821.16" departLane="best" departSpeed="max" from="155474552#0" to="58996565#8"/>
    <trip id="bus87" type="bus_bus" depart="830.70" departLane="best" from="161086990#3" to="-155474435#0"/>
    <trip id="bus88" type="bus_bus" depart="840.25" departLane="best" from="-964203364#1" to="58996003#1"/>
    <trip id="bus89" type="bus_bus" depart="849.80" departLane="best" from="58996000#2" to="155474639#1"/>
    <trip id="bus90" type="bus_bus" depart="859.35" departLane="best" from="-155474437#0" to="-155474435#1"/>
    <trip id="bus91" type="bus_bus" depart="868.90" departLane="best" departSpeed="max" from="155474427" to="963626872#1"/>
    <trip id="bus92" type="bus_bus" depart="878.45" departLane="best" from="-368152555#1" to="168653051#2"/>
    <trip id="bus93" type="bus_bus" depart="887.99" departLane="best" from="155474552#12" to="155474437#6"/>
    <trip id="bus94" type="bus_bus" depart="897.54" departLane="best" departSpeed="max" from="161087002#0" to="168379829#9"/>
    <trip id="bus95" type="bus_bus" depart="907.09" departLane="best" departSpeed="max" from="892485463#0" to="161087011#5"/>
    <trip id="bus96" type="bus_bus" depart="916.64" departLane="best" departSpeed="max" from="158699090#0" to="168379833#8"/>
    <trip id="bus97" type="bus_bus" depart="926.19" departLane="best" from="-155474437#1" to="161087011#9"/>
    <trip id="bus98" type="bus_bus" depart="935.73" departLane="best" from="155474639#3" to="58996565#5"/>
    <trip id="bus99" type="bus_bus" depart="945.28" departLane="best" from="-155474632#2" to="902915630"/>
    <trip id="bus100" type="bus_bus" depart="954.83" departLane="best" departSpeed="max" from="-155474441#5" to="-161087002#2"/>
    <trip id="bus101" type="bus_bus" depart="964.38" departLane="best" from="167409212" to="168369538#0"/>
    <trip id="bus102" type="bus_bus" depart="973.93" departLane="best" from="-168379833#15" to="-155474552#0"/>
    <trip id="bus103" type="bus_bus" depart="983.48" departLane="best" from="58996570#0" to="-168379829#9"/>
    <trip id="bus104" type="bus_bus" depart="993.02" departLane="best" from="-167409212" to="168367203#3"/>
    <trip id="bus105" type="bus_bus" depart="1002.57" departLane="best" departSpeed="max" from="155474455#0" to="161087011#8"/>
    <trip id="bus106" type="bus_bus" depart="1012.12" departLane="best" departSpeed="max" from="158699086#0" to="886841091#5"/>
    <trip id="bus107" type="bus_bus" depart="1021.67" departLane="best" departSpeed="max" from="-168379833#17" to="-155474435#1"/>
    <trip id="bus108" type="bus_bus" depart="1031.22" departLane="best" departSpeed="max" from="-944535893" to="168379837#2"/>
    <trip id="bus109" type="bus_bus" depart="1040.77" departLane="best" from="155474441#0" to="155474516"/>
    <trip id="bus110" type="bus_bus" depart="1050.31" departLane="best" departSpeed="max" from="964203364#0" to="964201120"/>
    <trip id="bus111" type="bus_bus" depart="1059.86" departLane="best" from="-155474441#1" to="167409214#8"/>
    <trip id="bus112" type="bus_bus" depart="1069.41" departLane="best" from="-368152555#1" to="886841091#5"/>
    <trip id="bus113" type="bus_bus" depart="1078.96" departLane="best" from="155474425#1" to="-155474636#0"/>
    <trip id="bus114" type="bus_bus" depart="1088.51" departLane="best" from="368152559#0" to="168379829#13"/>
    <trip id="bus115" type="bus_bus" depart="1098.06" departLane="best" from="-168367188#1" to="964186809"/>
    <trip id="bus116" type="bus_bus" depart="1107.60" departLane="best" departSpeed="max" from="168367751" to="-1049112520"/>
    <trip id="bus117" type="bus_bus" depart="1117.15" departLane="best" departSpeed="max" from="168367753#0" to="886841092"/>
    <trip id="bus118" type="bus_bus" depart="1126.70" departLane="best" from="-155474552#5" to="-155474552#0"/>
    <trip id="bus119" type="bus_bus" depart="1136.25" departLane="best" from="-155474520" to="161086997#1"/>
    <trip id="bus120" type="bus_bus" depart="1145.80" departLane="best" departSpeed="max" from="-368152560" to="168367191"/>
    <trip id="bus121" type="bus_bus" depart="1155.35" departLane="best" departSpeed="max" from="168379829#0" to="-167409214#2"/>
    <trip id="bus122" type="bus_bus" depart="1164.89" departLane="best" departSpeed="max" from="168367206#0" to="168379833#15"/>
    <trip id="bus123" type="bus_bus" depart="1174.44" departLane="best" departSpeed="max" from="155474636#0" to="886841052#3"/>
    <trip id="bus124" type="bus_bus" depart="1183.99" departLane="best" from="58996000#1" to="-155474455#0"/>
    <trip id="bus125" type="bus_bus" depart="1193.54" departLane="best" departSpeed="max" from="155474455#0" to="-168379833#8"/>
    <trip id="bus126" type="bus_bus" depart="1203.09" departLane="best" from="-1049112518" to="168653046#4"/>
    <trip id="bus127" type="bus_bus" depart="1212.64" departLane="best" from="168367206#2" to="-168379833#13"/>
    <trip id="bus128" type="bus_bus" depart="1222.18" departLane="best" departSpeed="max" from="168379833#0" to="161086997#0"/>
    <trip id="bus129" type="bus_bus" depart="1231.73" departLane="best" from="155474455#3" to="-1050275127#0"/>
    <trip id="bus130" type="bus_bus" depart="1241.28" departLane="best" from="155474441#2" to="58996570#6"/>
    <trip id="bus131" type="bus_bus" depart="1250.83" departLane="best" departSpeed="max" from="621794208#0" to="58996564#1"/>
    <trip id="bus132" type="bus_bus" depart="1260.38" departLane="best" from="-368152559#1" to="161087011#8"/>
    <trip id="bus133" type="bus_bus" depart="1269.93" departLane="best" from="-155474573#1" to="155474552#14"/>
    <trip id="bus134" type="bus_bus" depart="1279.47" departLane="best" departSpeed="max" from="-902915632" to="823589201#0"/>
    <trip id="bus135" type="bus_bus" depart="1289.02" departLane="best" departSpeed="max" from="168379838#0" to="58996565#8"/>
    <trip id="bus136" type="bus_bus" depart="1298.57" departLane="best" from="58996570#6" to="-167409214#6"/>
    <trip id="bus137" type="bus_bus" depart="1308.12" departLane="best" from="-168379833#5" to="155474466#2"/>
    <trip id="bus138" type="bus_bus" depart="1317.67" departLane="best" from="168379837#1" to="58996570#6"/>
    <trip id="bus139" type="bus_bus" depart="1327.22" departLane="best" departSpeed="max" from="-155474599" to="886841091#4"/>
    <trip id="bus140" type="bus_bus" depart="1336.76" departLane="best" departSpeed="max" from="58996006#0" to="944535893"/>
    <trip id="bus141" type="bus_bus" depart="1346.31" departLane="best" from="168663755#0" to="58996570#4"/>
    <trip id="bus142" type="bus_bus" depart="1355.86" departLane="best" from="-125222993#1" to="168379833#17"/>
    <trip id="bus143" type="bus_bus" depart="1365.41" departLane="best" from="-1049112519#1" to="886841091#5"/>
    <trip id="bus144" type="bus_bus" depart="1374.96" departLane="best" from="168663755#0" to="-168379833#2"/>
    <trip id="bus145" type="bus_bus" depart="1384.51" departLane="best" from="58996564#0" to="58996565#8"/>
    <trip id="bus146" type="bus_bus" depart="1394.05" departLane="best" from="-168379829#8" to="58995994#2"/>
    <trip id="bus147" type="bus_bus" depart="1403.60" departLane="best" departSpeed="max" from="168379838#0" to="-168379829#0"/>
    <trip id="bus148" type="bus_bus" depart="1413.15" departLane="best" from="-125222993#0" to="-161087013#0"/>
    <trip id="bus149" type="bus_bus" depart="1422.70" departLane="best" from="1049111723#1" to="58996566#0"/>
    <trip id="bus150" type="bus_bus" depart="1432.25" departLane="best" departSpeed="max" from="892485463#0" to="-168379838#0"/>
    <trip id="bus151" type="bus_bus" depart="1441.80" departLane="best" from="168367206#6" to="155474435#3"/>
    <trip id="bus152" type="bus_bus" depart="1451.34" departLane="best" from="886841091#0" to="-155474552#0"/>
    <trip id="bus153" type="bus_bus" depart="1460.89" departLane="best" departSpeed="max" from="892485463#0" to="-155474645#0"/>
    <trip id="bus154" type="bus_bus" depart="1470.44" departLane="best" from="887507333" to="168379833#16"/>
    <trip id="bus155" type="bus_bus" depart="1479.99" departLane="best" from="155474521" to="155474441#5"/>
    <trip id="bus156" type="bus_bus" depart="1489.54" departLane="best" from="-168379829#12" to="-58996006#0"/>
    <trip id="bus157" type="bus_bus" depart="1499.09" departLane="best" from="-167409214#7" to="155474632#0"/>
    <trip id="bus158" type="bus_bus" depart="1508.63" departLane="best" departSpeed="max" from="155474435#0" to="161087011#4"/>
    <trip id="bus159" type="bus_bus" depart="1518.18" departLane="best" from="-168379833#8" to="168379829#3"/>
    <trip id="bus160" type="bus_bus" depart="1527.73" departLane="best" from="-1049111723#1" to="886841091#1"/>
    <trip id="bus161" type="bus_bus" depart="1537.28" departLane="best" departSpeed="max" from="158699090#0" to="168379833#1"/>
    <trip id="bus162" type="bus_bus" depart="1546.83" departLane="best" departSpeed="max" from="168379833#0" to="168367753#8"/>
    <trip id="bus163" type="bus_bus" depart="1556.38" departLane="best" departSpeed="max" from="155474425#0" to="155474437#0"/>
    <trip id="bus164" type="bus_bus" depart="1565.92" departLane="best" departSpeed="max" from="168367753#0" to="-948004641#1"/>
    <trip id="bus165" type="bus_bus" depart="1575.47" departLane="best" departSpeed="max" from="168379829#0" to="-368152554"/>
    <trip id="bus166" type="bus_bus" depart="1585.02" departLane="best" from="155474437#1" to="-368152554"/>
    <trip id="bus167" type="bus_bus" depart="1594.57" departLane="best" from="886841091#1" to="168369538#11"/>
    <trip id="bus168" type="bus_bus" depart="1604.12" departLane="best" departSpeed="max" from="621794208#0" to="168367203#0"/>
    <trip id="bus169" type="bus_bus" depart="1613.67" departLane="best" departSpeed="max" from="-902915630" to="161086990#1"/>
    <trip id="bus170" type="bus_bus" depart="1623.21" departLane="best" from="155474455#5" to="161087011#6"/>
    <trip id="bus171" type="bus_bus" depart="1632.76" departLane="best" departSpeed="max" from="168367751" to="155474537"/>
    <trip id="bus172" type="bus_bus" depart="1642.31" departLane="best" from="155474537" to="168367188#0"/>
    <trip id="bus173" type="bus_bus" depart="1651.86" departLane="best" from="155474571#0" to="886841052#0"/>
    <trip id="bus174" type="bus_bus" depart="1661.41" departLane="best" departSpeed="max" from="168379838#0" to="-155474639#3"/>
    <trip id="bus175" type="bus_bus" depart="1670.96" departLane="best" departSpeed="max" from="-155474441#5" to="155474632#3"/>
    <trip id="bus176" type="bus_bus" depart="1680.50" departLane="best" departSpeed="max" from="168367206#0" to="-964203364#0"/>
    <trip id="bus177" type="bus_bus" depart="1690.05" departLane="best" from="168367753#12" to="-168379829#0"/>
    <trip id="bus178" type="bus_bus" depart="1699.60" departLane="best" from="168379833#2" to="155474552#15"/>
    <trip id="bus179" type="bus_bus" depart="1709.15" departLane="best" from="58996000#3" to="-155474437#2"/>
    <trip id="bus180" type="bus_bus" depart="1718.70" departLane="best" from="155474441#3" to="168367206#2"/>
    <trip id="bus181" type="bus_bus" depart="1728.25" departLane="best" from="-167409214#6" to="168379829#11"/>
    <trip id="bus182" type="bus_bus" depart="1737.79" departLane="best" departSpeed="max" from="155474636#0" to="168379829#7"/>
    <trip id="bus183" type="bus_bus" depart="1747.34" departLane="best" departSpeed="max" from="168367751" to="-1049112519#0"/>
    <trip id="bus184" type="bus_bus" depart="1756.89" departLane="best" from="168379833#10" to="168653046#4"/>
    <trip id="bus185" type="bus_bus" depart="1766.44" departLane="best" from="-155474516" to="155474441#0"/>
    <trip id="bus186" type="bus_bus" depart="1775.99" departLane="best" from="161087002#0" to="902915630"/>
    <trip id="bus187" type="bus_bus" depart="1785.54" departLane="best" departSpeed="max" from="158699086#0" to="-155474427"/>
    <trip id="bus188" type="bus_bus" depart="1795.08" departLane="best" from="-168379833#5" to="58996565#2"/>
    <trip id="bus189" type="bus_bus" depart="1804.63" departLane="best" from="-155474552#13" to="368152555#1"/>
    <trip id="bus190" type="bus_bus" depart="1814.18" departLane="best" departSpeed="max" from="168367753#0" to="158699086#6"/>
    <trip id="bus191" type="bus_bus" depart="1823.73" departLane="best" from="58996570#1" to="168367196#4"/>
    <trip id="bus192" type="bus_bus" depart="1833.28" departLane="best" departSpeed="max" from="168379829#0" to="155474599"/>
    <trip id="bus193" type="bus_bus" depart="1842.82" departLane="best" from="58996570#5" to="-168379833#5"/>
    <trip id="bus194" type="bus_bus" depart="1852.37" departLane="best" from="-155474571#1" to="-168379833#11"/>
    <trip id="bus195" type="bus_bus" depart="1861.92" departLane="best" from="168379833#3" to="168367750#1"/>
    <trip id="bus196" type="bus_bus" depart="1871.47" departLane="best" from="168367203#3" to="-168379833#7"/>
    <trip id="bus197" type="bus_bus" depart="1881.02" departLane="best" from="-155474441#4" to="-168379838#0"/>
    <trip id="bus198" type="bus_bus" depart="1890.57" departLane="best" departSpeed="max" from="-368152560" to="-58996566#1"/>
    <trip id="bus199" type="bus_bus" depart="1900.11" departLane="best" departSpeed="max" from="158699090#0" to="155474552#8"/>
    <trip id="bus200" type="bus_bus" depart="1909.66" departLane="best" from="-168379833#13" to="168653046#0"/>
    <trip id="bus201" type="bus_bus" depart="1919.21" departLane="best" departSpeed="max" from="168379828#0" to="155474435#5"/>
    <trip id="bus202" type="bus_bus" depart="1928.76" departLane="best" from="155474437#5" to="158699090#1"/>
    <trip id="bus203" type="bus_bus" depart="1938.31" departLane="best" departSpeed="max" from="155474455#0" to="886841052#2"/>
    <trip id="bus204" type="bus_bus" depart="1947.86" departLane="best" from="58996003#0" to="168653046#1"/>
    <trip id="bus205" type="bus_bus" depart="1957.40" departLane="best" departSpeed="max" from="155474427" to="-1049112519#0"/>
    <trip id="bus206" type="bus_bus" depart="1966.95" departLane="best" from="125222993#2" to="168379837#3"/>
    <trip id="bus207" type="bus_bus" depart="1976.50" departLane="best" departSpeed="max" from="155474455#0" to="-168379833#8"/>
    <trip id="bus208" type="bus_bus" depart="1986.05" departLane="best" from="161086990#0" to="168367188#1"/>
    <trip id="bus209" type="bus_bus" depart="1995.60" departLane="best" from="-168379829#6" to="-168367751"/>
    <trip id="bus210" type="bus_bus" depart="2005.15" departLane="best" from="155474516" to="125222993#4"/>
    <trip id="bus211" type="bus_bus" depart="2014.69" departLane="best" departSpeed="max" from="1050275127#0" to="168369538#2"/>
    <trip id="bus212" type="bus_bus" depart="2024.24" departLane="best" from="-155474437#2" to="-155474639#0"/>
    <trip id="bus213" type="bus_bus" depart="2033.79" departLane="best" from="155474552#7" to="155474552#14"/>
    <trip id="bus214" type="bus_bus" depart="2043.34" departLane="best" from="168367203#0" to="125222993#3"/>
    <trip id="bus215" type="bus_bus" depart="2052.89" departLane="best" from="155474435#4" to="161087011#0"/>
    <trip id="bus216" type="bus_bus" depart="2062.44" departLane="best" from="-125222993#3" to="168367752#0"/>
    <trip id="bus217" type="bus_bus" depart="2071.98" departLane="best" from="-155474552#6" to="155474521"/>
    <trip id="bus218" type="bus_bus" depart="2081.53" departLane="best" from="-155474435#5" to="125222993#6"/>
    <trip id="bus219" type="bus_bus" depart="2091.08" departLane="best" departSpeed="max" from="-168379829#13" to="-944524146"/>
    <trip id="bus220" type="bus_bus" depart="2100.63" departLane="best" from="168379833#2" to="125222993#6"/>
    <trip id="bus221" type="bus_bus" depart="2110.18" departLane="best" from="-168379833#11" to="58996000#6"/>
    <trip id="bus222" type="bus_bus" depart="2119.73" departLane="best" from="-168379833#7" to="-155474441#2"/>
    <trip id="bus223" type="bus_bus" depart="2129.27" departLane="best" departSpeed="max" from="-122119743#4" to="158699086#7"/>
    <trip id="bus224" type="bus_bus" depart="2138.82" departLane="best" from="964203364#1" to="1050275127#1"/>
    <trip id="bus225" type="bus_bus" depart="2148.37" departLane="best" departSpeed="max" from="168367751" to="168653051#2"/>
    <trip id="bus226" type="bus_bus" depart="2157.92" departLane="best" departSpeed="max" from="168367751" to="168379837#4"/>
    <trip id="bus227" type="bus_bus" depart="2167.47" departLane="best" departSpeed="max" from="886841093#0" to="-161087013#1"/>
    <trip id="bus228" type="bus_bus" depart="2177.02" departLane="best" departSpeed="max" from="-122119743#4" to="-155474632#3"/>
    <trip id="bus229" type="bus_bus" depart="2186.56" departLane="best" departSpeed="max" from="-155474552#15" to="168367753#7"/>
    <trip id="bus230" type="bus_bus" depart="2196.11" departLane="best" from="161087002#1" to="-168367751"/>
    <trip id="bus231" type="bus_bus" depart="2205.66" departLane="best" from="-368152553" to="902915632"/>
    <trip id="bus232" type="bus_bus" depart="2215.21" departLane="best" from="-944524146" to="168369538#11"/>
    <trip id="bus233" type="bus_bus" depart="2224.76" departLane="best" from="886841093#3" to="155474435#1"/>
    <trip id="bus234" type="bus_bus" depart="2234.31" departLane="best" from="168379828#2" to="155474437#4"/>
    <trip id="bus235" type="bus_bus" depart="2243.85" departLane="best" from="168369538#10" to="168367203#4"/>
    <trip id="bus236" type="bus_bus" depart="2253.40" departLane="best" departSpeed="max" from="-155474466#3" to="168653046#4"/>
    <trip id="bus237" type="bus_bus" depart="2262.95" departLane="best" from="58996000#3" to="167409214#8"/>
    <trip id="bus238" type="bus_bus" depart="2272.50" departLane="best" from="-155474552#14" to="963626872#0"/>
    <trip id="bus239" type="bus_bus" depart="2282.05" departLane="best" from="155474455#4" to="125222993#5"/>
    <trip id="bus240" type="bus_bus" depart="2291.60" departLane="best" from="-155474516" to="902915630"/>
    <trip id="bus241" type="bus_bus" depart="2301.14" departLane="best" from="168367206#1" to="58996000#4"/>