<?xml version="1.0" encoding="UTF-8"?>

<!-- generated on 2023-08-01 14:06:46.393716 by osmWebWizard.py UNKNOWN
<configuration>
    <net-file value="/home/diegocdts/Sumo/2023-08-01-14-06-40/osm.net.xml.gz"/>
    <output-trip-file value="/home/diegocdts/Sumo/2023-08-01-14-06-40/osm.pedestrian.trips.xml"/>
    <route-file value="/home/diegocdts/Sumo/2023-08-01-14-06-40/osm.pedestrian.rou.xml"/>
    <pedestrians value="True"/>
    <prefix value="ped"/>
    <vehicle-class value="pedestrian"/>
    <fringe-factor value="10"/>
    <max-distance value="2000.0"/>
    <end value="1200.0"/>
    <insertion-density value="10.0"/>
</configuration>
-->

<routes xmlns:xsi="http://www.w3.org/2001/XMLSchema-instance" xsi:noNamespaceSchemaLocation="http://sumo.dlr.de/xsd/routes_file.xsd">
    <vType id="ped_pedestrian" vClass="pedestrian"/>
    <person id="ped0" depart="0.00" type="ped_pedestrian">
        <walk from="181935425#1" to="-368152548#1"/>
    </person>
    <person id="ped1" depart="36.07" type="ped_pedestrian">
        <walk from="168651024#1" to="168651024#4"/>
    </person>
    <person id="ped2" depart="72.13" type="ped_pedestrian">
        <walk from="368152539#0" to="368152546"/>
    </person>
    <person id="ped3" depart="108.20" type="ped_pedestrian">
        <walk from="887038464#3" to="-887038472#0"/>
    </person>
    <person id="ped4" depart="144.26" type="ped_pedestrian">
        <walk from="168656709" to="-368152549#0"/>
    </person>
    <person id="ped5" depart="180.33" type="ped_pedestrian">
        <walk from="-944539183" to="181935423"/>
    </person>
    <person id="ped6" depart="216.40" type="ped_pedestrian">
        <walk from="-368152546" to="168651024#2"/>
    </person>
    <person id="ped7" depart="252.46" type="ped_pedestrian">
        <walk from="181935425#2" to="181935425#0"/>
    </person>
    <person id="ped8" depart="288.53" type="ped_pedestrian">
        <walk from="-944539183" to="181935426#1"/>
    </person>
    <person id="ped9" depart="324.59" type="ped_pedestrian">
        <walk from="823589202#0" to="-368152539#0"/>
    </person>
    <person id="ped10" depart="360.66" type="ped_pedestrian">
        <walk from="823589202#0" to="368152548#1"/>
    </person>
    <person id="ped11" depart="396.73" type="ped_pedestrian">
        <walk from="168656703" to="-964227071#1"/>
    </person>
    <person id="ped12" depart="432.79" type="ped_pedestrian">
        <walk from="944535896" to="168656710#0"/>
    </person>
    <person id="ped13" depart="468.86" type="ped_pedestrian">
        <walk from="823589204#1" to="181935426#2"/>
    </person>
    <person id="ped14" depart="504.92" type="ped_pedestrian">
        <walk from="823589202#0" to="823589202#0"/>
    </person>
    <person id="ped15" depart="540.99" type="ped_pedestrian">
        <walk from="168663764#0" to="944539183"/>
    </person>
    <person id="ped16" depart="577.06" type="ped_pedestrian">
        <walk from="168656706" to="181935425#1"/>
    </person>
    <person id="ped17" depart="613.12" type="ped_pedestrian">
        <walk from="823589203" to="181935426#3"/>
    </person>
    <person id="ped18" depart="649.19" type="ped_pedestrian">
        <walk from="887038464#0" to="181935426#0"/>
    </person>
    <person id="ped19" depart="685.25" type="ped_pedestrian">
        <walk from="181935426#3" to="-40253364#0"/>
    </person>
    <person id="ped20" depart="721.32" type="ped_pedestrian">
        <walk from="-964205814" to="168656706"/>
    </person>
    <person id="ped21" depart="757.39" type="ped_pedestrian">
        <walk from="-40253364#1" to="168651024#5"/>
    </person>
    <person id="ped22" depart="793.45" type="ped_pedestrian">
        <walk from="-902915622" to="168656705"/>
    </person>
    <person id="ped23" depart="829.52" type="ped_pedestrian">
        <walk from="181935425#0" to="168656710#2"/>
    </person>
    <person id="ped24" depart="865.58" type="ped_pedestrian">
        <walk from="168656705" to="168651024#3"/>
    </person>
    <person id="ped25" depart="901.65" type="ped_pedestrian">
        <walk from="168651024#1" to="944539180"/>
    </person>
    <person id="ped26" depart="937.72" type="ped_pedestrian">
        <walk from="181935425#1" to="181935426#2"/>
    </person>
    <person id="ped27" depart="973.78" type="ped_pedestrian">
        <walk from="-944535894" to="823589202#0"/>
    </person>
    <person id="ped28" depart="1009.85" type="ped_pedestrian">
        <walk from="-902915636" to="168656710#3"/>
    </person>
    <person id="ped29" depart="1045.91" type="ped_pedestrian">
        <walk from="964205814" to="181935427"/>
    </person>
    <person id="ped30" depart="1081.98" type="ped_pedestrian">
        <walk from="168663765#0" to="368152547"/>
    </person>
    <person id="ped31" depart="1118.04" type="ped_pedestrian">
        <walk from="823589204#1" to="823646141#1"/>
    </person>
    <person id="ped32" depart="1154.11" type="ped_pedestrian">
        <walk from="168651024#5" to="168656704"/>
    </person>
    <person id="ped33" depart="1190.18" type="ped_pedestrian">
        <walk from="-944539183" to="944539180"/>
    </person>
</routes>
