<?xml version="1.0" encoding="UTF-8"?>

<!-- generated on 2023-08-01 14:06:46.221995 by osmWebWizard.py UNKNOWN
<configuration>
    <net-file value="/home/diegocdts/Sumo/2023-08-01-14-06-40/osm.net.xml.gz"/>
    <output-trip-file value="/home/diegocdts/Sumo/2023-08-01-14-06-40/osm.passenger.trips.xml"/>
    <route-file value="/home/diegocdts/Sumo/2023-08-01-14-06-40/osm.passenger.rou.xml"/>
    <prefix value="veh"/>
    <trip-attributes value="departLane=&quot;best&quot;"/>
    <fringe-start-attributes value="departSpeed=&quot;max&quot;"/>
    <vehicle-class value="passenger"/>
    <lanes value="True"/>
    <fringe-factor value="50"/>
    <allow-fringe.min-length value="1000.0"/>
    <via-edge-types value="highway.motorway,highway.motorway_link,highway.trunk_link,highway.primary_link,highway.secondary_link,highway.tertiary_link"/>
    <min-distance value="300.0"/>
    <min-distance.fringe value="10.0"/>
    <remove-loops value="True"/>
    <validate value="True"/>
    <end value="1200.0"/>
    <insertion-density value="12.0"/>
</configuration>
-->

<!-- generated on 2023-08-01 14:06:46 by Eclipse SUMO duarouter Version 1.18.0
<configuration xmlns:xsi="http://www.w3.org/2001/XMLSchema-instance" xsi:noNamespaceSchemaLocation="http://sumo.dlr.de/xsd/duarouterConfiguration.xsd">

    <input>
        <net-file value="/home/diegocdts/Sumo/2023-08-01-14-06-40/osm.net.xml.gz"/>
        <route-files value="/home/diegocdts/Sumo/2023-08-01-14-06-40/osm.passenger.trips.xml"/>
    </input>

    <output>
        <output-file value="/home/diegocdts/Sumo/2023-08-01-14-06-40/osm.passenger.trips.xml.tmp"/>
        <alternatives-output value="NUL"/>
        <write-trips value="true"/>
    </output>

    <processing>
        <remove-loops value="true"/>
    </processing>

    <time>
        <begin value="0.0"/>
        <end value="1200.0"/>
    </time>

    <report>
        <no-warnings value="true"/>
        <ignore-errors value="true"/>
        <no-step-log value="true"/>
    </report>

</configuration>
-->

<routes xmlns:xsi="http://www.w3.org/2001/XMLSchema-instance" xsi:noNamespaceSchemaLocation="http://sumo.dlr.de/xsd/routes_file.xsd">
    <vType id="veh_passenger" vClass="passenger"/>
    <trip id="veh0" type="veh_passenger" depart="0.00" departLane="best" departSpeed="max" from="155480583" to="-155474427#0"/>
    <trip id="veh1" type="veh_passenger" depart="1.71" departLane="best" departSpeed="max" from="-181942445" to="-168379834#0"/>
    <trip id="veh2" type="veh_passenger" depart="3.43" departLane="best" departSpeed="max" from="168367753#0" to="172999054"/>
    <trip id="veh3" type="veh_passenger" depart="5.14" departLane="best" departSpeed="max" from="368152549#0" to="155474632#3"/>
    <trip id="veh4" type="veh_passenger" depart="6.85" departLane="best" departSpeed="max" from="-58996566#5" to="-155474427#0"/>
    <trip id="veh5" type="veh_passenger" depart="8.57" departLane="best" from="-168379829#12" to="155474594#2"/>
    <trip id="veh6" type="veh_passenger" depart="10.28" departLane="best" from="144450740#10" to="-168371695#11"/>
    <trip id="veh7" type="veh_passenger" depart="11.99" departLane="best" departSpeed="max" from="158699086#0" to="161086990#2"/>
    <trip id="veh8" type="veh_passenger" depart="13.71" departLane="best" from="168379829#7" to="168367206#1"/>
    <trip id="veh9" type="veh_passenger" depart="15.42" departLane="best" from="168379828#3" to="125357566#2"/>
    <trip id="veh10" type="veh_passenger" depart="17.13" departLane="best" departSpeed="max" from="168379828#0" to="181942452"/>
    <trip id="veh11" type="veh_passenger" depart="18.85" departLane="best" departSpeed="max" from="-296067124" to="-161087012#0"/>
    <trip id="veh12" type="veh_passenger" depart="20.56" departLane="best" departSpeed="max" from="886841055" to="-964203363"/>
    <trip id="veh13" type="veh_passenger" depart="22.28" departLane="best" from="-155474528" to="-155474636#0"/>
    <trip id="veh14" type="veh_passenger" depart="23.99" departLane="best" departSpeed="max" from="168379837#0" to="168653046#3"/>
    <trip id="veh15" type="veh_passenger" depart="25.70" departLane="best" departSpeed="max" from="168379828#0" to="181942458"/>
    <trip id="veh16" type="veh_passenger" depart="27.42" departLane="best" departSpeed="max" from="155474427#0" to="944535893"/>
    <trip id="veh17" type="veh_passenger" depart="29.13" departLane="best" departSpeed="max" from="-368152547" to="161086998#10"/>
    <trip id="veh18" type="veh_passenger" depart="30.84" departLane="best" departSpeed="max" from="168379834#0" to="168379833#21"/>
    <trip id="veh19" type="veh_passenger" depart="32.56" departLane="best" from="181942449#1" to="168367196#4"/>
    <trip id="veh20" type="veh_passenger" depart="34.27" departLane="best" departSpeed="max" from="161087013#0" to="-155474446#1"/>
    <trip id="veh21" type="veh_passenger" depart="35.98" departLane="best" departSpeed="max" from="-168379833#21" to="-368152554"/>
    <trip id="veh22" type="veh_passenger" depart="37.70" departLane="best" departSpeed="max" from="-155474502" to="168518333#0"/>
    <trip id="veh23" type="veh_passenger" depart="39.41" departLane="best" departSpeed="max" from="-155474547" to="-368152549#0"/>
    <trip id="veh24" type="veh_passenger" depart="41.12" departLane="best" departSpeed="max" from="155480583" to="144450740#1"/>
    <trip id="veh25" type="veh_passenger" depart="42.84" departLane="best" departSpeed="max" from="-368152547" to="-168379830#0"/>
    <trip id="veh26" type="veh_passenger" depart="44.55" departLane="best" departSpeed="max" from="-172999054" to="902915623"/>
    <trip id="veh27" type="veh_passenger" depart="46.26" departLane="best" departSpeed="max" from="158699086#0" to="168379833#14"/>
    <trip id="veh28" type="veh_passenger" depart="47.98" departLane="best" departSpeed="max" from="-155474594#2" to="181942458"/>
    <trip id="veh29" type="veh_passenger" depart="49.69" departLane="best" departSpeed="max" from="-155474594#2" to="155474437#7"/>
    <trip id="veh30" type="veh_passenger" depart="51.40" departLane="best" departSpeed="max" from="964203363" to="168518333#1"/>
    <trip id="veh31" type="veh_passenger" depart="53.12" departLane="best" departSpeed="max" from="155474448#0" to="181942445"/>
    <trip id="veh32" type="veh_passenger" depart="54.83" departLane="best" departSpeed="max" from="168379837#0" to="368152540"/>
    <trip id="veh33" type="veh_passenger" depart="56.54" departLane="best" departSpeed="max" from="-168379833#21" to="-155474435#3"/>
    <trip id="veh34" type="veh_passenger" depart="58.26" departLane="best" departSpeed="max" from="-181942458" to="-368152539#0"/>
    <trip id="veh35" type="veh_passenger" depart="59.97" departLane="best" departSpeed="max" from="368152539#0" to="-886841055"/>
    <trip id="veh36" type="veh_passenger" depart="61.69" departLane="best" departSpeed="max" from="158699086#0" to="155474450#4"/>
    <trip id="veh37" type="veh_passenger" depart="63.40" departLane="best" from="58996003#2" to="155474556#18"/>
    <trip id="veh38" type="veh_passenger" depart="65.11" departLane="best" departSpeed="max" from="-172999054" to="-172998997"/>
    <trip id="veh39" type="veh_passenger" depart="66.83" departLane="best" departSpeed="max" from="155474448#0" to="-181942460#1"/>
    <trip id="veh40" type="veh_passenger" depart="68.54" departLane="best" from="155474552#11" to="621794208#6"/>
    <trip id="veh41" type="veh_passenger" depart="70.25" departLane="best" departSpeed="max" from="-368152560" to="-168379834#0"/>
    <trip id="veh42" type="veh_passenger" depart="71.97" departLane="best" departSpeed="max" from="964203363" to="155474594#2"/>
    <trip id="veh43" type="veh_passenger" depart="73.68" departLane="best" departSpeed="max" from="-155474523" to="-155474448#0"/>
    <trip id="veh44" type="veh_passenger" depart="75.39" departLane="best" departSpeed="max" from="-155474552#18" to="168379836#2"/>
    <trip id="veh45" type="veh_passenger" depart="77.11" departLane="best" departSpeed="max" from="168379828#0" to="155474520"/>
    <trip id="veh46" type="veh_passenger" depart="78.82" departLane="best" departSpeed="max" from="-155474466#8" to="155474437#7"/>
    <trip id="veh47" type="veh_passenger" depart="80.53" departLane="best" departSpeed="max" from="964203363" to="155474646#8"/>
    <trip id="veh48" type="veh_passenger" depart="82.25" departLane="best" departSpeed="max" from="886841085" to="58996566#5"/>
    <trip id="veh49" type="veh_passenger" depart="83.96" departLane="best" from="-1050275126#2" to="181942456"/>
    <trip id="veh50" type="veh_passenger" depart="85.67" departLane="best" departSpeed="max" from="161087008#0" to="155480505"/>
    <trip id="veh51" type="veh_passenger" depart="87.39" departLane="best" departSpeed="max" from="-172999054" to="168518333#1"/>
    <trip id="veh52" type="veh_passenger" depart="89.10" departLane="best" departSpeed="max" from="-155474552#18" to="155474547"/>
    <trip id="veh53" type="veh_passenger" depart="90.81" departLane="best" departSpeed="max" from="-902915623" to="902915630"/>
    <trip id="veh54" type="veh_passenger" depart="92.53" departLane="best" departSpeed="max" from="368152539#0" to="-184594838#0"/>
    <trip id="veh55" type="veh_passenger" depart="94.24" departLane="best" departSpeed="max" from="-944535898" to="-168368483#0"/>
    <trip id="veh56" type="veh_passenger" depart="95.95" departLane="best" from="58996000#0" to="58996568#8"/>
    <trip id="veh57" type="veh_passenger" depart="97.67" departLane="best" departSpeed="max" from="-181942455" to="168518333#1"/>
    <trip id="veh58" type="veh_passenger" depart="99.38" departLane="best" departSpeed="max" from="155474637#0" to="-161087012#0"/>
    <trip id="veh59" type="veh_passenger" depart="101.10" departLane="best" departSpeed="max" from="168369473" to="158699086#10"/>
    <trip id="veh60" type="veh_passenger" depart="102.81" departLane="best" departSpeed="max" from="168371695#0" to="155480505"/>
    <trip id="veh61" type="veh_passenger" depart="104.52" departLane="best" from="-1049111723#1" to="-886841071"/>
    <trip id="veh62" type="veh_passenger" depart="106.24" departLane="best" departSpeed="max" from="-125222993#10" to="886841095"/>
    <trip id="veh63" type="veh_passenger" depart="107.95" departLane="best" departSpeed="max" from="368152539#0" to="58995998"/>
    <trip id="veh64" type="veh_passenger" depart="109.66" departLane="best" departSpeed="max" from="-181942456" to="-155474453#2"/>
    <trip id="veh65" type="veh_passenger" depart="111.38" departLane="best" departSpeed="max" from="368152539#0" to="902915630"/>
    <trip id="veh66" type="veh_passenger" depart="113.09" departLane="best" departSpeed="max" from="-155474523" to="155474579#1"/>
    <trip id="veh67" type="veh_passenger" depart="114.80" departLane="best" departSpeed="max" from="-155474466#8" to="296067124"/>
    <trip id="veh68" type="veh_passenger" depart="116.52" departLane="best" departSpeed="max" from="168369473" to="-155480583"/>
    <trip id="veh69" type="veh_passenger" depart="118.23" departLane="best" departSpeed="max" from="-902915632" to="161086998#10"/>
    <trip id="veh70" type="veh_passenger" depart="119.94" departLane="best" departSpeed="max" from="-172999054" to="58996568#8"/>
    <trip id="veh71" type="veh_passenger" depart="121.66" departLane="best" departSpeed="max" from="-58996566#5" to="-168379830#0"/>
    <trip id="veh72" type="veh_passenger" depart="123.37" departLane="best" departSpeed="max" from="155474427#0" to="181942458"/>
    <trip id="veh73" type="veh_passenger" depart="125.08" departLane="best" departSpeed="max" from="-161086998#10" to="-733799057"/>
    <trip id="veh74" type="veh_passenger" depart="126.80" departLane="best" departSpeed="max" from="964203363" to="168653046#0"/>
    <trip id="veh75" type="veh_passenger" depart="128.51" departLane="best" departSpeed="max" from="-886841069#1" to="155474600#1"/>
    <trip id="veh76" type="veh_passenger" depart="130.22" departLane="best" departSpeed="max" from="-155474556#18" to="-168379834#0"/>
    <trip id="veh77" type="veh_passenger" depart="131.94" departLane="best" departSpeed="max" from="-296067124" to="168367203#7"/>
    <trip id="veh78" type="veh_passenger" depart="133.65" departLane="best" departSpeed="max" from="-168379833#21" to="-168379834#0"/>
    <trip id="veh79" type="veh_passenger" depart="135.36" departLane="best" from="155474468#0" to="168379836#2"/>
    <trip id="veh80" type="veh_passenger" depart="137.08" departLane="best" departSpeed="max" from="-168379833#21" to="886841069#1"/>
    <trip id="veh81" type="veh_passenger" depart="138.79" departLane="best" from="168740432" to="-155474466#4"/>
    <trip id="veh82" type="veh_passenger" depart="140.51" departLane="best" departSpeed="max" from="-168379836#2" to="168653046#7"/>
    <trip id="veh83" type="veh_passenger" depart="142.22" departLane="best" from="167409214#8" to="-161086998#5"/>
    <trip id="veh84" type="veh_passenger" depart="143.93" departLane="best" departSpeed="max" from="733799057" to="161087011#12"/>
    <trip id="veh85" type="veh_passenger" depart="145.65" departLane="best" departSpeed="max" from="-902915632" to="368152542"/>
    <trip id="veh86" type="veh_passenger" depart="147.36" departLane="best" departSpeed="max" from="168379828#0" to="-168371695#0"/>
    <trip id="veh87" type="veh_passenger" depart="149.07" departLane="best" departSpeed="max" from="-155474547" to="155474523"/>
    <trip id="veh88" type="veh_passenger" depart="150.79" departLane="best" from="-58996568#1" to="155474556#18"/>
    <trip id="veh89" type="veh_passenger" depart="152.50" departLane="best" departSpeed="max" from="168367751#0" to="168740432"/>
    <trip id="veh90" type="veh_passenger" depart="154.21" departLane="best" from="892485463#3" to="-155474637#0"/>
    <trip id="veh91" type="veh_passenger" depart="155.93" departLane="best" departSpeed="max" from="-58995998" to="1049112519#1"/>
    <trip id="veh92" type="veh_passenger" depart="157.64" departLane="best" from="181942449#1" to="-172998997"/>
    <trip id="veh93" type="veh_passenger" depart="159.35" departLane="best" departSpeed="max" from="-155480505" to="155474552#18"/>
    <trip id="veh94" type="veh_passenger" depart="161.07" departLane="best" departSpeed="max" from="-58996566#5" to="-368152549#0"/>
    <trip id="veh95" type="veh_passenger" depart="162.78" departLane="best" from="-168518333#0" to="886841095"/>
    <trip id="veh96" type="veh_passenger" depart="164.49" departLane="best" departSpeed="max" from="-886841069#1" to="58996566#5"/>
    <trip id="veh97" type="veh_passenger" depart="166.21" departLane="best" departSpeed="max" from="155474446#0" to="-155474448#0"/>
    <trip id="veh98" type="veh_passenger" depart="167.92" departLane="best" from="964203364#1" to="58996003#3"/>
    <trip id="veh99" type="veh_passenger" depart="169.63" departLane="best" departSpeed="max" from="-944535893" to="-168379833#1"/>
    <trip id="veh100" type="veh_passenger" depart="171.35" departLane="best" from="-38310390#0" to="-155474453#5"/>
    <trip id="veh101" type="veh_passenger" depart="173.06" departLane="best" from="-368152548#0" to="944535898"/>
    <trip id="veh102" type="veh_passenger" depart="174.78" departLane="best" departSpeed="max" from="-172999054" to="368152542"/>
    <trip id="veh103" type="veh_passenger" depart="176.49" departLane="best" departSpeed="max" from="-902915623" to="155474523"/>
    <trip id="veh104" type="veh_passenger" depart="178.20" departLane="best" departSpeed="max" from="886841055" to="944567344"/>
    <trip id="veh105" type="veh_passenger" depart="179.92" departLane="best" departSpeed="max" from="155474448#0" to="181942456"/>
    <trip id="veh106" type="veh_passenger" depart="181.63" departLane="best" departSpeed="max" from="-155474590#2" to="368152559#1"/>
    <trip id="veh107" type="veh_passenger" depart="183.34" departLane="best" departSpeed="max" from="886841085" to="168367203#5"/>
    <trip id="veh108" type="veh_passenger" depart="185.06" departLane="best" from="-155474435#8" to="296067124"/>
    <trip id="veh109" type="veh_passenger" depart="186.77" departLane="best" from="-155474453#1" to="168367203#7"/>
    <trip id="veh110" type="veh_passenger" depart="188.48" departLane="best" departSpeed="max" from="-944535898" to="58996566#5"/>
    <trip id="veh111" type="veh_passenger" depart="190.20" departLane="best" departSpeed="max" from="-155474590#2" to="902915632"/>
    <trip id="veh112" type="veh_passenger" depart="191.91" departLane="best" departSpeed="max" from="-155474502" to="-168368483#0"/>
    <trip id="veh113" type="veh_passenger" depart="193.62" departLane="best" from="-155474622#0" to="172999054"/>
    <trip id="veh114" type="veh_passenger" depart="195.34" departLane="best" from="-168379836#1" to="-155474645#5"/>
    <trip id="veh115" type="veh_passenger" depart="197.05" departLane="best" departSpeed="max" from="368152549#0" to="-172998997"/>
    <trip id="veh116" type="veh_passenger" depart="198.76" departLane="best" from="155474598" to="168379833#21"/>
    <trip id="veh117" type="veh_passenger" depart="200.48" departLane="best" departSpeed="max" from="-58996566#5" to="168367203#7"/>
    <trip id="veh118" type="veh_passenger" depart="202.19" departLane="best" departSpeed="max" from="155474425#0" to="892485463#0"/>
    <trip id="veh119" type="veh_passenger" depart="203.90" departLane="best" departSpeed="max" from="-161086998#10" to="181942456"/>
    <trip id="veh120" type="veh_passenger" depart="205.62" departLane="best" departSpeed="max" from="-168379836#2" to="155474450#4"/>
    <trip id="veh121" type="veh_passenger" depart="207.33" departLane="best" departSpeed="max" from="158699090#0" to="-58996566#1"/>
    <trip id="veh122" type="veh_passenger" depart="209.04" departLane="best" departSpeed="max" from="-181942458" to="296067124"/>
    <trip id="veh123" type="veh_passenger" depart="210.76" departLane="best" departSpeed="max" from="-155474502" to="155474556#17"/>
    <trip id="veh124" type="veh_passenger" depart="212.47" departLane="best" departSpeed="max" from="964203363" to="944567346#0"/>
    <trip id="veh125" type="veh_passenger" depart="214.19" departLane="best" departSpeed="max" from="-172999054" to="887507332"/>
    <trip id="veh126" type="veh_passenger" depart="215.90" departLane="best" departSpeed="max" from="368152539#0" to="58996570#10"/>
    <trip id="veh127" type="veh_passenger" depart="217.61" departLane="best" departSpeed="max" from="-368152547" to="-161087013#0"/>
    <trip id="veh128" type="veh_passenger" depart="219.33" departLane="best" departSpeed="max" from="168379834#0" to="181942452"/>
    <trip id="veh129" type="veh_passenger" depart="221.04" departLane="best" departSpeed="max" from="155474637#0" to="944535898"/>
    <trip id="veh130" type="veh_passenger" depart="222.75" departLane="best" departSpeed="max" from="158699086#0" to="-144450740#13"/>
    <trip id="veh131" type="veh_passenger" depart="224.47" departLane="best" departSpeed="max" from="168379830#0" to="-58996006#1"/>
    <trip id="veh132" type="veh_passenger" depart="226.18" departLane="best" from="158699086#9" to="902915623"/>
    <trip id="veh133" type="veh_passenger" depart="227.89" departLane="best" departSpeed="max" from="-155474565#1" to="-155474645#0"/>
    <trip id="veh134" type="veh_passenger" depart="229.61" departLane="best" departSpeed="max" from="-155474552#18" to="161086998#10"/>
    <trip id="veh135" type="veh_passenger" depart="231.32" departLane="best" departSpeed="max" from="-181942445" to="168379829#0"/>
    <trip id="veh136" type="veh_passenger" depart="233.03" departLane="best" from="168367203#1" to="-168379830#0"/>
    <trip id="veh137" type="veh_passenger" depart="234.75" departLane="best" departSpeed="max" from="155480583" to="-304641093"/>
    <trip id="veh138" type="veh_passenger" depart="236.46" departLane="best" departSpeed="max" from="-944535897" to="886841069#1"/>
    <trip id="veh139" type="veh_passenger" depart="238.17" departLane="best" departSpeed="max" from="168379837#0" to="-155474636#0"/>
    <trip id="veh140" type="veh_passenger" depart="239.89" departLane="best" from="-58996568#1" to="-368152549#0"/>
    <trip id="veh141" type="veh_passenger" depart="241.60" departLane="best" departSpeed="max" from="-1049114551" to="368152539#3"/>
    <trip id="veh142" type="veh_passenger" depart="243.31" departLane="best" departSpeed="max" from="155480583" to="-181942460#0"/>
    <trip id="veh143" type="veh_passenger" depart="245.03" departLane="best" departSpeed="max" from="168367753#0" to="161086998#10"/>
    <trip id="veh144" type="veh_passenger" depart="246.74" departLane="best" departSpeed="max" from="-58996568#8" to="-144450740#8"/>
    <trip id="veh145" type="veh_passenger" depart="248.45" departLane="best" departSpeed="max" from="-155474502" to="58996570#10"/>
    <trip id="veh146" type="veh_passenger" depart="250.17" departLane="best" departSpeed="max" from="368152554" to="887507333"/>
    <trip id="veh147" type="veh_passenger" depart="251.88" departLane="best" departSpeed="max" from="168379834#0" to="168367203#7"/>
    <trip id="veh148" type="veh_passenger" depart="253.60" departLane="best" departSpeed="max" from="-155474579#1" to="-155480583"/>
    <trip id="veh149" type="veh_passenger" depart="255.31" departLane="best" departSpeed="max" from="-181942456" to="823635624#1"/>
    <trip id="veh150" type="veh_passenger" depart="257.02" departLane="best" departSpeed="max" from="368152554" to="-168379830#0"/>
    <trip id="veh151" type="veh_passenger" depart="258.74" departLane="best" from="-168518332#1" to="-155474637#0"/>
    <trip id="veh152" type="veh_passenger" depart="260.45" departLane="best" departSpeed="max" from="168371695#0" to="58996570#10"/>
    <trip id="veh153" type="veh_passenger" depart="262.16" departLane="best" departSpeed="max" from="-58995998" to="-168379833#4"/>
    <trip id="veh154" type="veh_passenger" depart="263.88" departLane="best" departSpeed="max" from="-155474590#2" to="886988250#3"/>
    <trip id="veh155" type="veh_passenger" depart="265.59" departLane="best" departSpeed="max" from="181942460#0" to="944535897"/>
    <trip id="veh156" type="veh_passenger" depart="267.30" departLane="best" from="168379828#6" to="58996570#10"/>
    <trip id="veh157" type="veh_passenger" depart="269.02" departLane="best" from="-125222993#7" to="184594838#3"/>
    <trip id="veh158" type="veh_passenger" depart="270.73" departLane="best" departSpeed="max" from="-296067124" to="887038465#1"/>
    <trip id="veh159" type="veh_passenger" depart="272.44" departLane="best" departSpeed="max" from="168379828#0" to="58996568#8"/>
    <trip id="veh160" type="veh_passenger" depart="274.16" departLane="best" from="168653046#1" to="-368152539#0"/>
    <trip id="veh161" type="veh_passenger" depart="275.87" departLane="best" from="168371695#10" to="-155474637#5"/>
    <trip id="veh162" type="veh_passenger" depart="277.58" departLane="best" from="181942460#2" to="58996566#5"/>
    <trip id="veh163" type="veh_passenger" depart="279.30" departLane="best" from="-168379833#14" to="368152560"/>
    <trip id="veh164" type="veh_passenger" depart="281.01" departLane="best" departSpeed="max" from="-902915630" to="-733799057"/>
    <trip id="veh165" type="veh_passenger" depart="282.72" departLane="best" departSpeed="max" from="168379828#0" to="168379836#0"/>
    <trip id="veh166" type="veh_passenger" depart="284.44" departLane="best" departSpeed="max" from="-125222993#10" to="-168371695#0"/>
    <trip id="veh167" type="veh_passenger" depart="286.15" departLane="best" departSpeed="max" from="-184594838#3" to="58996568#8"/>
    <trip id="veh168" type="veh_passenger" depart="287.86" departLane="best" departSpeed="max" from="886841085" to="-368152549#0"/>
    <trip id="veh169" type="veh_passenger" depart="289.58" departLane="best" departSpeed="max" from="158699086#0" to="155474466#2"/>
    <trip id="veh170" type="veh_passenger" depart="291.29" departLane="best" from="887038470#0" to="155480505"/>
    <trip id="veh171" type="veh_passenger" depart="293.01" departLane="best" from="823646140#1" to="-155474645#0"/>
    <trip id="veh172" type="veh_passenger" depart="294.72" departLane="best" departSpeed="max" from="886841085" to="-168368483#0"/>
    <trip id="veh173" type="veh_passenger" depart="296.43" departLane="best" from="886841056#0" to="-368152539#0"/>
    <trip id="veh174" type="veh_passenger" depart="298.15" departLane="best" departSpeed="max" from="-155474552#18" to="155474547"/>
    <trip id="veh175" type="veh_passenger" depart="299.86" departLane="best" departSpeed="max" from="168367751#0" to="-886841055"/>
    <trip id="veh176" type="veh_passenger" depart="301.57" departLane="best" from="155474636#1" to="155474594#2"/>
    <trip id="veh177" type="veh_passenger" depart="303.29" departLane="best" departSpeed="max" from="-368152548#1" to="168367196#0"/>
    <trip id="veh178" type="veh_passenger" depart="305.00" departLane="best" departSpeed="max" from="-168518333#1" to="181942455"/>
    <trip id="veh179" type="veh_passenger" depart="306.71" departLane="best" departSpeed="max" from="-1049114551" to="886841095"/>
    <trip id="veh180" type="veh_passenger" depart="308.43" departLane="best" departSpeed="max" from="155474427#0" to="181942456"/>
    <trip id="veh181" type="veh_passenger" depart="310.14" departLane="best" from="168367753#11" to="168653046#7"/>
    <trip id="veh182" type="veh_passenger" depart="311.85" departLane="best" departSpeed="max" from="-368152542" to="155474455#7"/>
    <trip id="veh183" type="veh_passenger" depart="313.57" departLane="best" departSpeed="max" from="158699090#0" to="-964203363"/>
    <trip id="veh184" type="veh_passenger" depart="315.28" departLane="best" departSpeed="max" from="-181942458" to="58996565#10"/>
    <trip id="veh185" type="veh_passenger" depart="316.99" departLane="best" from="168367206#7" to="-58996566#3"/>
    <trip id="veh186" type="veh_passenger" depart="318.71" departLane="best" departSpeed="max" from="-181942458" to="155474466#8"/>
    <trip id="veh187" type="veh_passenger" depart="320.42" departLane="best" from="-40253369" to="-368152554"/>
    <trip id="veh188" type="veh_passenger" depart="322.13" departLane="best" departSpeed="max" from="-155474556#18" to="155474502"/>
    <trip id="veh189" type="veh_passenger" depart="323.85" departLane="best" from="825973898#1" to="172999054"/>
    <trip id="veh190" type="veh_passenger" depart="325.56" departLane="best" departSpeed="max" from="368152554" to="168379833#21"/>
    <trip id="veh191" type="veh_passenger" depart="327.27" departLane="best" departSpeed="max" from="-181942456" to="161086998#10"/>
    <trip id="veh192" type="veh_passenger" depart="328.99" departLane="best" departSpeed="max" from="-58996568#8" to="168367203#7"/>
    <trip id="veh193" type="veh_passenger" depart="330.70" departLane="best" departSpeed="max" from="158699086#0" to="155474556#18"/>
    <trip id="veh194" type="veh_passenger" depart="332.42" departLane="best" departSpeed="max" from="-886841069#1" to="-168379833#0"/>
    <trip id="veh195" type="veh_passenger" depart="334.13" departLane="best" departSpeed="max" from="-902915632" to="825973898#2"/>
    <trip id="veh196" type="veh_passenger" depart="335.84" departLane="best" departSpeed="max" from="168379828#0" to="-168367751#0"/>
    <trip id="veh197" type="veh_passenger" depart="337.56" departLane="best" departSpeed="max" from="-155474523" to="155474600#1"/>
    <trip id="veh198" type="veh_passenger" depart="339.27" departLane="best" departSpeed="max" from="155480583" to="-964203363"/>
    <trip id="veh199" type="veh_passenger" depart="340.98" departLane="best" departSpeed="max" from="168379830#0" to="296067124"/>
    <trip id="veh200" type="veh_passenger" depart="342.70" departLane="best" departSpeed="max" from="158699090#0" to="-168379834#0"/>
    <trip id="veh201" type="veh_passenger" depart="344.41" departLane="best" departSpeed="max" from="-161086998#10" to="-155474427#0"/>
    <trip id="veh202" type="veh_passenger" depart="346.12" departLane="best" departSpeed="max" from="-168379836#2" to="155474565#1"/>
    <trip id="veh203" type="veh_passenger" depart="347.84" departLane="best" from="168379838#2" to="-155474506"/>
    <trip id="veh204" type="veh_passenger" depart="349.55" departLane="best" departSpeed="max" from="-58996566#5" to="168379836#2"/>
    <trip id="veh205" type="veh_passenger" depart="351.26" departLane="best" departSpeed="max" from="-155480505" to="181942452"/>
    <trip id="veh206" type="veh_passenger" depart="352.98" departLane="best" departSpeed="max" from="-944535897" to="-172998997"/>
    <trip id="veh207" type="veh_passenger" depart="354.69" departLane="best" departSpeed="max" from="158699086#0" to="-125222993#7"/>
    <trip id="veh208" type="veh_passenger" depart="356.40" departLane="best" departSpeed="max" from="168368483#0" to="368152539#3"/>
    <trip id="veh209" type="veh_passenger" depart="358.12" departLane="best" departSpeed="max" from="-155474552#18" to="155474523"/>
    <trip id="veh210" type="veh_passenger" depart="359.83" departLane="best" departSpeed="max" from="-155474600#1" to="902915632"/>
    <trip id="veh211" type="veh_passenger" depart="361.54" departLane="best" from="144450740#5" to="-155474448#0"/>
    <trip id="veh212" type="veh_passenger" depart="363.26" departLane="best" from="168517772" to="58996565#10"/>
    <trip id="veh213" type="veh_passenger" depart="364.97" departLane="best" departSpeed="max" from="-902915623" to="368152548#1"/>
    <trip id="veh214" type="veh_passenger" depart="366.68" departLane="best" departSpeed="max" from="158699090#0" to="944535898"/>
    <trip id="veh215" type="veh_passenger" depart="368.40" departLane="best" from="155474622#2" to="902915630"/>
    <trip id="veh216" type="veh_passenger" depart="370.11" departLane="best" departSpeed="max" from="368152549#0" to="168379833#21"/>