<?xml version="1.0" encoding="UTF-8"?>

<!-- generated on 2023-08-25 10:04:42.822768 by osmWebWizard.py UNKNOWN
<configuration>
    <net-file value="/home/diegocdts/Sumo/_uruguaiana/osm.net.xml.gz"/>
    <output-trip-file value="/home/diegocdts/Sumo/_uruguaiana/osm.bicycle.trips.xml"/>
    <route-file value="/home/diegocdts/Sumo/_uruguaiana/osm.bicycle.rou.xml"/>
    <prefix value="bike"/>
    <trip-attributes value="departLane=&quot;best&quot;"/>
    <fringe-start-attributes value="departSpeed=&quot;max&quot;"/>
    <vehicle-class value="bicycle"/>
    <fringe-factor value="2"/>
    <vclass value="bicycle"/>
    <via-edge-types value="highway.motorway,highway.motorway_link,highway.trunk_link,highway.primary_link,highway.secondary_link,highway.tertiary_link"/>
    <max-distance value="8000.0"/>
    <remove-loops value="True"/>
    <validate value="True"/>
    <insertion-density value="6.0"/>
</configuration>
-->

<!-- generated on 2023-08-25 10:04:42 by Eclipse SUMO duarouter Version 1.18.0
<configuration xmlns:xsi="http://www.w3.org/2001/XMLSchema-instance" xsi:noNamespaceSchemaLocation="http://sumo.dlr.de/xsd/duarouterConfiguration.xsd">

    <input>
        <net-file value="/home/diegocdts/Sumo/_uruguaiana/osm.net.xml.gz"/>
        <route-files value="/home/diegocdts/Sumo/_uruguaiana/osm.bicycle.trips.xml"/>
    </input>

    <output>
        <output-file value="/home/diegocdts/Sumo/_uruguaiana/osm.bicycle.trips.xml.tmp"/>
        <alternatives-output value="NUL"/>
        <write-trips value="true"/>
    </output>

    <processing>
        <remove-loops value="true"/>
    </processing>

    <time>
        <begin value="0.0"/>
        <end value="3600.0"/>
    </time>

    <report>
        <no-warnings value="true"/>
        <ignore-errors value="true"/>
        <no-step-log value="true"/>
    </report>

</configuration>
-->

<routes xmlns:xsi="http://www.w3.org/2001/XMLSchema-instance" xsi:noNamespaceSchemaLocation="http://sumo.dlr.de/xsd/routes_file.xsd">
    <vType id="bike_bicycle" vClass="bicycle"/>
    <trip id="bike0" type="bike_bicycle" depart="0.00" departLane="best" from="168367750#1" to="125222993#2"/>
    <trip id="bike1" type="bike_bicycle" depart="6.26" departLane="best" from="-58996566#0" to="-168379829#5"/>
    <trip id="bike2" type="bike_bicycle" depart="12.52" departLane="best" from="168379833#11" to="168369538#3"/>
    <trip id="bike3" type="bike_bicycle" depart="18.78" departLane="best" departSpeed="max" from="621794208#0" to="-155474455#3"/>
    <trip id="bike4" type="bike_bicycle" depart="25.04" departLane="best" from="155474455#4" to="125222993#5"/>
    <trip id="bike5" type="bike_bicycle" depart="31.30" departLane="best" from="-168379829#8" to="155474639#4"/>
    <trip id="bike6" type="bike_bicycle" depart="37.56" departLane="best" from="-125222993#3" to="167409214#8"/>
    <trip id="bike7" type="bike_bicycle" depart="43.82" departLane="best" from="168367752#1" to="-161087002#5"/>
    <trip id="bike8" type="bike_bicycle" depart="50.07" departLane="best" from="168379829#9" to="167539596#1"/>
    <trip id="bike9" type="bike_bicycle" depart="56.33" departLane="best" departSpeed="max" from="368152554" to="-1049112519#0"/>
    <trip id="bike10" type="bike_bicycle" depart="62.59" departLane="best" from="-368152553" to="168379829#12"/>
    <trip id="bike11" type="bike_bicycle" depart="68.85" departLane="best" departSpeed="max" from="1050275127#0" to="-155474639#0"/>
    <trip id="bike12" type="bike_bicycle" depart="75.11" departLane="best" from="944524146" to="1049112518"/>
    <trip id="bike13" type="bike_bicycle" depart="81.37" departLane="best" departSpeed="max" from="-155474466#3" to="-155474516"/>
    <trip id="bike14" type="bike_bicycle" depart="87.63" departLane="best" from="58996003#2" to="168367196#1"/>
    <trip id="bike15" type="bike_bicycle" depart="93.89" departLane="best" departSpeed="max" from="368152554" to="168379833#17"/>
    <trip id="bike16" type="bike_bicycle" depart="100.15" departLane="best" from="161086990#3" to="944567343#1"/>
    <trip id="bike17" type="bike_bicycle" depart="106.41" departLane="best" departSpeed="max" from="155474435#0" to="161087011#10"/>
    <trip id="bike18" type="bike_bicycle" depart="112.67" departLane="best" from="58996000#0" to="168367203#4"/>
    <trip id="bike19" type="bike_bicycle" depart="118.93" departLane="best" from="58996565#2" to="-167409214#3"/>
    <trip id="bike20" type="bike_bicycle" depart="125.19" departLane="best" from="168653046#2" to="-155474435#0"/>
    <trip id="bike21" type="bike_bicycle" depart="131.45" departLane="best" from="168379833#13" to="-58996006#1"/>
    <trip id="bike22" type="bike_bicycle" depart="137.71" departLane="best" from="155474455#1" to="-168379833#0"/>
    <trip id="bike23" type="bike_bicycle" depart="143.96" departLane="best" from="-155474521" to="368152555#0"/>
    <trip id="bike24" type="bike_bicycle" depart="150.22" departLane="best" from="964203364#1" to="125222993#6"/>
    <trip id="bike25" type="bike_bicycle" depart="156.48" departLane="best" from="-155474425#2" to="-168379829#0"/>
    <trip id="bike26" type="bike_bicycle" depart="162.74" departLane="best" from="-368152559#0" to="892485460"/>
    <trip id="bike27" type="bike_bicycle" depart="169.00" departLane="best" from="168367752#0" to="168367196#4"/>
    <trip id="bike28" type="bike_bicycle" depart="175.26" departLane="best" from="161087002#2" to="-168379833#16"/>
    <trip id="bike29" type="bike_bicycle" depart="181.52" departLane="best" from="155474639#5" to="-155474425#3"/>
    <trip id="bike30" type="bike_bicycle" depart="187.78" departLane="best" departSpeed="max" from="964203364#0" to="168367752#1"/>
    <trip id="bike31" type="bike_bicycle" depart="194.04" departLane="best" from="161087011#1" to="168369538#7"/>
    <trip id="bike32" type="bike_bicycle" depart="200.30" departLane="best" from="58996003#0" to="168653051#2"/>
    <trip id="bike33" type="bike_bicycle" depart="206.56" departLane="best" from="-168379833#13" to="-155474425#0"/>
    <trip id="bike34" type="bike_bicycle" depart="212.82" departLane="best" from="948004641#0" to="-168379838#2"/>
    <trip id="bike35" type="bike_bicycle" depart="219.08" departLane="best" from="168379829#4" to="892485461"/>
    <trip id="bike36" type="bike_bicycle" depart="225.34" departLane="best" from="58996570#0" to="-944539182"/>
    <trip id="bike37" type="bike_bicycle" depart="231.60" departLane="best" departSpeed="max" from="168367753#0" to="155474437#1"/>
    <trip id="bike38" type="bike_bicycle" depart="237.86" departLane="best" departSpeed="max" from="886841054#0" to="155474552#15"/>
    <trip id="bike39" type="bike_bicycle" depart="244.11" departLane="best" from="368152555#2" to="168379833#16"/>
    <trip id="bike40" type="bike_bicycle" depart="250.37" departLane="best" from="161087011#3" to="-168379838#0"/>
    <trip id="bike41" type="bike_bicycle" depart="256.63" departLane="best" from="167409214#3" to="886841052#3"/>
    <trip id="bike42" type="bike_bicycle" depart="262.89" departLane="best" from="-155474437#3" to="168379829#3"/>
    <trip id="bike43" type="bike_bicycle" depart="269.15" departLane="best" from="964227071#1" to="155474645#1"/>
    <trip id="bike44" type="bike_bicycle" depart="275.41" departLane="best" departSpeed="max" from="-155474466#3" to="155474435#1"/>
    <trip id="bike45" type="bike_bicycle" depart="281.67" departLane="best" from="-155474552#12" to="168367206#5"/>
    <trip id="bike46" type="bike_bicycle" depart="287.93" departLane="best" from="168653051#1" to="155474455#2"/>
    <trip id="bike47" type="bike_bicycle" depart="294.19" departLane="best" departSpeed="max" from="-155474437#6" to="-155474435#1"/>
    <trip id="bike48" type="bike_bicycle" depart="300.45" departLane="best" from="964227071#1" to="161086990#1"/>
    <trip id="bike49" type="bike_bicycle" depart="306.71" departLane="best" from="944567343#0" to="58996566#1"/>
    <trip id="bike50" type="bike_bicycle" depart="312.97" departLane="best" from="-1050275127#1" to="168379833#11"/>
    <trip id="bike51" type="bike_bicycle" depart="319.23" departLane="best" from="168369538#10" to="161086997#1"/>
    <trip id="bike52" type="bike_bicycle" depart="325.49" departLane="best" from="-368152559#0" to="168367752#2"/>
    <trip id="bike53" type="bike_bicycle" depart="331.75" departLane="best" from="-155474552#13" to="155474466#3"/>
    <trip id="bike54" type="bike_bicycle" depart="338.00" departLane="best" from="155474552#2" to="944535892#0"/>
    <trip id="bike55" type="bike_bicycle" depart="344.26" departLane="best" from="58996570#0" to="-168379838#0"/>
    <trip id="bike56" type="bike_bicycle" depart="350.52" departLane="best" from="155474639#5" to="-161087002#6"/>
    <trip id="bike57" type="bike_bicycle" depart="356.78" departLane="best" from="886841053#1" to="58996570#3"/>
    <trip id="bike58" type="bike_bicycle" depart="363.04" departLane="best" from="-944535892#0" to="168367752#1"/>
    <trip id="bike59" type="bike_bicycle" depart="369.30" departLane="best" from="168367196#0" to="-155474636#2"/>
    <trip id="bike60" type="bike_bicycle" depart="375.56" departLane="best" departSpeed="max" from="168379837#0" to="161086997#2"/>
    <trip id="bike61" type="bike_bicycle" depart="381.82" departLane="best" departSpeed="max" from="168379838#0" to="161086990#1"/>
    <trip id="bike62" type="bike_bicycle" depart="388.08" departLane="best" from="-1049111723#0" to="-964203364#0"/>
    <trip id="bike63" type="bike_bicycle" depart="394.34" departLane="best" departSpeed="max" from="-122119743#4" to="886841093#2"/>
    <trip id="bike64" type="bike_bicycle" depart="400.60" departLane="best" from="58996570#2" to="58996003#1"/>
    <trip id="bike65" type="bike_bicycle" depart="406.86" departLane="best" departSpeed="max" from="-944535894" to="-155474435#7"/>
    <trip id="bike66" type="bike_bicycle" depart="413.12" departLane="best" from="58996570#1" to="902915632"/>
    <trip id="bike67" type="bike_bicycle" depart="419.38" departLane="best" from="-155474455#5" to="155474599"/>
    <trip id="bike68" type="bike_bicycle" depart="425.64" departLane="best" from="-155474441#1" to="168379838#2"/>
    <trip id="bike69" type="bike_bicycle" depart="431.89" departLane="best" from="168379837#2" to="155474552#7"/>
    <trip id="bike70" type="bike_bicycle" depart="438.15" departLane="best" from="155474573#1" to="161087011#1"/>
    <trip id="bike71" type="bike_bicycle" depart="444.41" departLane="best" from="368152555#2" to="58996570#4"/>
    <trip id="bike72" type="bike_bicycle" depart="450.67" departLane="best" from="155474455#5" to="-168379829#0"/>
    <trip id="bike73" type="bike_bicycle" depart="456.93" departLane="best" from="161086997#0" to="168379833#17"/>
    <trip id="bike74" type="bike_bicycle" depart="463.19" departLane="best" from="-168379829#11" to="-944539182"/>
    <trip id="bike75" type="bike_bicycle" depart="469.45" departLane="best" from="964227071#1" to="168367753#13"/>
    <trip id="bike76" type="bike_bicycle" depart="475.71" departLane="best" from="155474537" to="158699086#5"/>
    <trip id="bike77" type="bike_bicycle" depart="481.97" departLane="best" from="-155474552#3" to="168379829#6"/>
    <trip id="bike78" type="bike_bicycle" depart="488.23" departLane="best" from="1049112520" to="167539596#0"/>
    <trip id="bike79" type="bike_bicycle" depart="494.49" departLane="best" from="-168379833#14" to="168379829#3"/>
    <trip id="bike80" type="bike_bicycle" depart="500.75" departLane="best" from="-155474441#2" to="168367750#0"/>
    <trip id="bike81" type="bike_bicycle" depart="507.01" departLane="best" from="168379833#13" to="886841053#2"/>
    <trip id="bike82" type="bike_bicycle" depart="513.27" departLane="best" from="58996565#1" to="155474441#0"/>
    <trip id="bike83" type="bike_bicycle" depart="519.53" departLane="best" departSpeed="max" from="-168379833#17" to="168369537"/>
    <trip id="bike84" type="bike_bicycle" depart="525.79" departLane="best" from="168379829#6" to="-155474571#0"/>
    <trip id="bike85" type="bike_bicycle" depart="532.04" departLane="best" departSpeed="max" from="886841093#0" to="-167409212"/>
    <trip id="bike86" type="bike_bicycle" depart="538.30" departLane="best" from="155474573#0" to="168663755#2"/>
    <trip id="bike87" type="bike_bicycle" depart="544.56" departLane="best" departSpeed="max" from="368152554" to="-167409214#3"/>
    <trip id="bike88" type="bike_bicycle" depart="550.82" departLane="best" from="155474516" to="155474466#2"/>
    <trip id="bike89" type="bike_bicycle" depart="557.08" departLane="best" from="155474455#5" to="-155474552#6"/>
    <trip id="bike90" type="bike_bicycle" depart="563.34" departLane="best" from="168379829#9" to="168369538#11"/>
    <trip id="bike91" type="bike_bicycle" depart="569.60" departLane="best" from="964186810" to="-155474520"/>
    <trip id="bike92" type="bike_bicycle" depart="575.86" departLane="best" from="155474437#5" to="1049112519#1"/>
    <trip id="bike93" type="bike_bicycle" depart="582.12" departLane="best" from="58996565#2" to="-168379833#2"/>
    <trip id="bike94" type="bike_bicycle" depart="588.38" departLane="best" from="167409214#7" to="155474552#10"/>
    <trip id="bike95" type="bike_bicycle" depart="594.64" departLane="best" from="155474455#4" to="-368152555#0"/>
    <trip id="bike96" type="bike_bicycle" depart="600.90" departLane="best" from="168379833#8" to="886841091#5"/>
    <trip id="bike97" type="bike_bicycle" depart="607.16" departLane="best" from="155474552#1" to="58996566#2"/>
    <trip id="bike98" type="bike_bicycle" depart="613.42" departLane="best" from="161087002#4" to="-155474435#3"/>
    <trip id="bike99" type="bike_bicycle" depart="619.68" departLane="best" from="964530364" to="-58996006#1"/>
    <trip id="bike100" type="bike_bicycle" depart="625.93" departLane="best" departSpeed="max" from="944539182" to="886841092"/>
    <trip id="bike102" type="bike_bicycle" depart="638.45" departLane="best" departSpeed="max" from="155474636#0" to="-168379829#1"/>
    <trip id="bike103" type="bike_bicycle" depart="644.71" departLane="best" from="-155474437#4" to="-155474435#8"/>
    <trip id="bike104" type="bike_bicycle" depart="650.97" departLane="best" departSpeed="max" from="155474435#0" to="964201118"/>
    <trip id="bike105" type="bike_bicycle" depart="657.23" departLane="best" from="-368152555#2" to="168663755#1"/>
    <trip id="bike106" type="bike_bicycle" depart="663.49" departLane="best" from="155474552#3" to="155474455#3"/>
    <trip id="bike107" type="bike_bicycle" depart="669.75" departLane="best" from="944524146" to="964227071#0"/>
    <trip id="bike108" type="bike_bicycle" depart="676.01" departLane="best" from="161087011#0" to="168379833#10"/>
    <trip id="bike109" type="bike_bicycle" depart="682.27" departLane="best" from="-155474639#0" to="823589201#1"/>
    <trip id="bike110" type="bike_bicycle" depart="688.53" departLane="best" departSpeed="max" from="944539182" to="-167409214#4"/>
    <trip id="bike111" type="bike_bicycle" depart="694.79" departLane="best" from="161086997#2" to="168379837#1"/>
    <trip id="bike112" type="bike_bicycle" depart="701.05" departLane="best" from="-155474437#2" to="-167409214#7"/>
    <trip id="bike113" type="bike_bicycle" depart="707.31" departLane="best" departSpeed="max" from="155474645#0" to="58996565#6"/>
    <trip id="bike114" type="bike_bicycle" depart="713.57" departLane="best" from="155474639#1" to="944535894"/>
    <trip id="bike115" type="bike_bicycle" depart="719.82" departLane="best" from="155474455#1" to="-167409212"/>
    <trip id="bike116" type="bike_bicycle" depart="726.08" departLane="best" from="167539596#0" to="168369538#2"/>
    <trip id="bike117" type="bike_bicycle" depart="732.34" departLane="best" departSpeed="max" from="-168379833#17" to="-155474552#3"/>
    <trip id="bike118" type="bike_bicycle" depart="738.60" departLane="best" from="621794206" to="168379833#15"/>
    <trip id="bike119" type="bike_bicycle" depart="744.86" departLane="best" from="167539596#0" to="168367203#4"/>
    <trip id="bike120" type="bike_bicycle" depart="751.12" departLane="best" from="155474455#2" to="-167409214#6"/>
    <trip id="bike121" type="bike_bicycle" depart="757.38" departLane="best" from="158699086#8" to="887502008"/>
    <trip id="bike122" type="bike_bicycle" depart="763.64" departLane="best" departSpeed="max" from="-168379829#13" to="168379833#1"/>
    <trip id="bike123" type="bike_bicycle" depart="769.90" departLane="best" from="168379833#2" to="155474437#1"/>
    <trip id="bike124" type="bike_bicycle" depart="776.16" departLane="best" from="168367753#6" to="-886841056#1"/>
    <trip id="bike125" type="bike_bicycle" depart="782.42" departLane="best" from="948004641#0" to="168379837#4"/>
    <trip id="bike126" type="bike_bicycle" depart="788.68" departLane="best" from="-155474441#3" to="155474552#15"/>
    <trip id="bike127" type="bike_bicycle" depart="794.94" departLane="best" from="964530364" to="964227071#0"/>
    <trip id="bike128" type="bike_bicycle" depart="801.20" departLane="best" from="155474441#3" to="-168379829#1"/>
    <trip id="bike129" type="bike_bicycle" depart="807.46" departLane="best" from="-368152555#2" to="887502008"/>
    <trip id="bike130" type="bike_bicycle" depart="813.71" departLane="best" from="58996570#3" to="58996570#8"/>
    <trip id="bike131" type="bike_bicycle" depart="819.97" departLane="best" from="155474425#1" to="-155474639#2"/>
    <trip id="bike132" type="bike_bicycle" depart="826.23" departLane="best" from="58996000#2" to="-168379829#2"/>
    <trip id="bike133" type="bike_bicycle" depart="832.49" departLane="best" from="168369538#4" to="-964201119"/>
    <trip id="bike134" type="bike_bicycle" depart="838.75" departLane="best" from="168367752#3" to="1049112519#1"/>
    <trip id="bike135" type="bike_bicycle" depart="845.01" departLane="best" from="-368152559#1" to="-886841056#0"/>
    <trip id="bike136" type="bike_bicycle" depart="851.27" departLane="best" from="168367753#13" to="892485461"/>
    <trip id="bike137" type="bike_bicycle" depart="857.53" departLane="best" from="-155474571#1" to="155474552#13"/>
    <trip id="bike138" type="bike_bicycle" depart="863.79" departLane="best" from="-155474552#10" to="161087011#10"/>
    <trip id="bike139" type="bike_bicycle" depart="870.05" departLane="best" from="58996006#1" to="168367196#2"/>
    <trip id="bike140" type="bike_bicycle" depart="876.31" departLane="best" from="168379829#3" to="-168367188#0"/>
    <trip id="bike141" type="bike_bicycle" depart="882.57" departLane="best" from="168367206#5" to="-168379838#0"/>
    <trip id="bike142" type="bike_bicycle" depart="888.83" departLane="best" from="-155474636#1" to="886841053#2"/>
    <trip id="bike143" type="bike_bicycle" depart="895.09" departLane="best" from="58996003#2" to="-155474466#1"/>
    <trip id="bike144" type="bike_bicycle" depart="901.35" departLane="best" from="155474455#5" to="-368152554"/>
    <trip id="bike145" type="bike_bicycle" depart="907.61" departLane="best" from="-1049112518" to="168653046#4"/>
    <trip id="bike146" type="bike_bicycle" depart="913.86" departLane="best" from="168367750#0" to="-168379833#9"/>
    <trip id="bike147" type="bike_bicycle" depart="920.12" departLane="best" from="-168379833#13" to="161087011#10"/>
    <trip id="bike148" type="bike_bicycle" depart="926.38" departLane="best" from="-155474466#2" to="-1049112520"/>
    <trip id="bike149" type="bike_bicycle" depart="932.64" departLane="best" from="-155474441#4" to="168367196#3"/>
    <trip id="bike150" type="bike_bicycle" depart="938.90" departLane="best" from="886841052#0" to="161087002#5"/>
    <trip id="bike151" type="bike_bicycle" depart="945.16" departLane="best" from="58996000#3" to="167409214#6"/>
    <trip id="bike152" type="bike_bicycle" depart="951.42" departLane="best" from="-155474632#3" to="155474552#7"/>
    <trip id="bike153" type="bike_bicycle" depart="957.68" departLane="best" departSpeed="max" from="-944539181" to="886841053#0"/>
    <trip id="bike154" type="bike_bicycle" depart="963.94" departLane="best" from="168663755#0" to="58996566#1"/>
    <trip id="bike155" type="bike_bicycle" depart="970.20" departLane="best" from="621794210" to="-168379829#0"/>
    <trip id="bike156" type="bike_bicycle" depart="976.46" departLane="best" from="-168379833#8" to="-155474537"/>
    <trip id="bike157" type="bike_bicycle" depart="982.72" departLane="best" from="168379838#1" to="621794208#1"/>
    <trip id="bike158" type="bike_bicycle" depart="988.98" departLane="best" from="155474441#1" to="168367203#4"/>
    <trip id="bike159" type="bike_bicycle" depart="995.24" departLane="best" from="-155474639#0" to="886841093#3"/>
    <trip id="bike160" type="bike_bicycle" depart="1001.50" departLane="best" from="58996565#3" to="-948004641#1"/>
    <trip id="bike161" type="bike_bicycle" depart="1007.75" departLane="best" from="368152555#0" to="58996570#8"/>
    <trip id="bike162" type="bike_bicycle" depart="1014.01" departLane="best" from="-125222993#2" to="168379833#4"/>
    <trip id="bike163" type="bike_bicycle" depart="1020.27" departLane="best" from="1049111723#1" to="886841093#3"/>
    <trip id="bike164" type="bike_bicycle" depart="1026.53" departLane="best" from="-368152551" to="58996566#2"/>
    <trip id="bike165" type="bike_bicycle" depart="1032.79" departLane="best" from="368152555#0" to="-168379838#1"/>
    <trip id="bike166" type="bike_bicycle" depart="1039.05" departLane="best" from="168653046#2" to="-155474552#1"/>
    <trip id="bike167" type="bike_bicycle" depart="1045.31" departLane="best" from="58996566#0" to="58996566#0"/>
    <trip id="bike168" type="bike_bicycle" depart="1051.57" departLane="best" from="168379833#1" to="58996000#0"/>
    <trip id="bike169" type="bike_bicycle" depart="1057.83" departLane="best" from="155474552#6" to="-944535892#1"/>
    <trip id="bike170" type="bike_bicycle" depart="1064.09" departLane="best" from="168663755#0" to="-168379829#7"/>
    <trip id="bike171" type="bike_bicycle" depart="1070.35" departLane="best" from="125222993#1" to="167409214#4"/>
    <trip id="bike172" type="bike_bicycle" depart="1076.61" departLane="best" from="-964227071#0" to="58996566#2"/>
    <trip id="bike174" type="bike_bicycle" depart="1089.13" departLane="best" from="168367750#2" to="155474437#3"/>
    <trip id="bike175" type="bike_bicycle" depart="1095.39" departLane="best" from="963626872#1" to="161086997#1"/>
    <trip id="bike176" type="bike_bicycle" depart="1101.64" departLane="best" from="886841093#2" to="155474552#13"/>
    <trip id="bike177" type="bike_bicycle" depart="1107.90" departLane="best" departSpeed="max" from="944539182" to="-161087002#6"/>
    <trip id="bike178" type="bike_bicycle" depart="1114.16" departLane="best" from="944535892#1" to="-168379838#1"/>
    <trip id="bike179" type="bike_bicycle" depart="1120.42" departLane="best" from="-155474552#11" to="155474466#3"/>
    <trip id="bike180" type="bike_bicycle" depart="1126.68" departLane="best" from="168379829#9" to="-944539182"/>
    <trip id="bike181" type="bike_bicycle" depart="1132.94" departLane="best" from="168367191" to="158699086#1"/>
    <trip id="bike182" type="bike_bicycle" depart="1139.20" departLane="best" from="155474435#3" to="167409214#2"/>
    <trip id="bike183" type="bike_bicycle" depart="1145.46" departLane="best" from="-168379838#2" to="168379829#5"/>
    <trip id="bike184" type="bike_bicycle" depart="1151.72" departLane="best" from="-1049111723#0" to="886841092"/>
    <trip id="bike185" type="bike_bicycle" depart="1157.98" departLane="best" from="161086997#0" to="-168379833#11"/>
    <trip id="bike186" type="bike_bicycle" depart="1164.24" departLane="best" from="-168379833#14" to="168369538#0"/>
    <trip id="bike187" type="bike_bicycle" depart="1170.50" departLane="best" from="155474421#2" to="-155474437#5"/>
    <trip id="bike188" type="bike_bicycle" depart="1176.76" departLane="best" from="168367753#13" to="-964227071#1"/>
    <trip id="bike189" type="bike_bicycle" depart="1183.02" departLane="best" departSpeed="max" from="-944539183" to="58996565#4"/>
    <trip id="bike190" type="bike_bicycle" depart="1189.28" departLane="best" from="168379829#4" to="-886841056#1"/>
    <trip id="bike191" type="bike_bicycle" depart="1195.53" departLane="best" departSpeed="max" from="-944539181" to="155474441#0"/>
    <trip id="bike192" type="bike_bicycle" depart="1201.79" departLane="best" from="155474437#5" to="823589201#0"/>
    <trip id="bike193" type="bike_bicycle" depart="1208.05" departLane="best" from="155474552#7" to="-155474455#1"/>
    <trip id="bike194" type="bike_bicycle" depart="1214.31" departLane="best" from="886841093#3" to="168369538#3"/>
    <trip id="bike195" type="bike_bicycle" depart="1220.57" departLane="best" from="886841052#0" to="168367203#2"/>
    <trip id="bike196" type="bike_bicycle" depart="1226.83" departLane="best" from="-944535892#0" to="161087002#6"/>
    <trip id="bike197" type="bike_bicycle" depart="1233.09" departLane="best" from="-1049111723#0" to="-58996006#0"/>
    <trip id="bike198" type="bike_bicycle" depart="1239.35" departLane="best" from="155474516" to="-167409214#4"/>
    <trip id="bike199" type="bike_bicycle" depart="1245.61" departLane="best" departSpeed="max" from="168367753#0" to="-155474552#5"/>
    <trip id="bike200" type="bike_bicycle" depart="1251.87" departLane="best" from="155474552#1" to="168379829#1"/>
    <trip id="bike201" type="bike_bicycle" depart="1258.13" departLane="best" from="155474573#0" to="886841053#1"/>
    <trip id="bike202" type="bike_bicycle" depart="1264.39" departLane="best" from="168663755#0" to="-161087002#0"/>
    <trip id="bike203" type="bike_bicycle" depart="1270.65" departLane="best" from="-155474455#4" to="158699086#4"/>
    <trip id="bike204" type="bike_bicycle" depart="1276.91" departLane="best" from="168367206#3" to="1049111723#1"/>
    <trip id="bike205" type="bike_bicycle" depart="1283.17" departLane="best" from="-368152559#1" to="168379837#3"/>
    <trip id="bike206" type="bike_bicycle" depart="1289.43" departLane="best" from="168367753#6" to="-168379829#6"/>
    <trip id="bike207" type="bike_bicycle" depart="1295.68" departLane="best" from="168379829#1" to="-125222993#2"/>
    <trip id="bike208" type="bike_bicycle" depart="1301.94" departLane="best" from="-168379833#5" to="155474571#0"/>
    <trip id="bike209" type="bike_bicycle" depart="1308.20" departLane="best" departSpeed="max" from="58996006#0" to="155474441#1"/>
    <trip id="bike210" type="bike_bicycle" depart="1314.46" departLane="best" departSpeed="max" from="155474455#0" to="168367206#6"/>
    <trip id="bike211" type="bike_bicycle" depart="1320.72" departLane="best" from="-167539597" to="168379829#11"/>
    <trip id="bike212" type="bike_bicycle" depart="1326.98" departLane="best" from="155474639#1" to="168379833#14"/>
    <trip id="bike213" type="bike_bicycle" depart="1333.24" departLane="best" departSpeed="max" from="168367753#0" to="-1049112519#0"/>
    <trip id="bike214" type="bike_bicycle" depart="1339.50" departLane="best" from="168379833#4" to="168653046#4"/>
    <trip id="bike215" type="bike_bicycle" depart="1345.76" departLane="best" from="155474552#10" to="155474455#4"/>
    <trip id="bike216" type="bike_bicycle" depart="1352.02" departLane="best" from="161087002#6" to="944535893"/>
    <trip id="bike217" type="bike_bicycle" depart="1358.28" departLane="best" from="158699086#5" to="-155474435#3"/>
    <trip id="bike218" type="bike_bicycle" depart="1364.54" departLane="best" from="-168379833#8" to="58996565#4"/>
    <trip id="bike219" type="bike_bicycle" depart="1370.80" departLane="best" from="-155474552#4" to="368152560"/>
    <trip id="bike220" type="bike_bicycle" depart="1377.06" departLane="best" from="168367753#3" to="964201119"/>
    <trip id="bike221" type="bike_bicycle" depart="1383.32" departLane="best" from="167539596#0" to="902915632"/>
    <trip id="bike222" type="bike_bicycle" depart="1389.57" departLane="best" departSpeed="max" from="621794208#0" to="168367203#0"/>
    <trip id="bike223" type="bike_bicycle" depart="1395.83" departLane="best" from="168379829#4" to="-155474639#3"/>
    <trip id="bike224" type="bike_bicycle" depart="1402.09" departLane="best" from="58996000#1" to="161087002#6"/>
    <trip id="bike225" type="bike_bicycle" depart="1408.35" departLane="best" from="621794208#2" to="168379833#8"/>
    <trip id="bike226" type="bike_bicycle" depart="1414.61" departLane="best" from="-155474573#1" to="168379833#8"/>
    <trip id="bike227" type="bike_bicycle" depart="1420.87" departLane="best" from="168379833#7" to="168367752#0"/>
    <trip id="bike228" type="bike_bicycle" depart="1427.13" departLane="best" from="168379837#2" to="158699086#7"/>
    <trip id="bike229" type="bike_bicycle" depart="1433.39" departLane="best" departSpeed="max" from="168367206#0" to="-368152554"/>
    <trip id="bike230" type="bike_bicycle" depart="1439.65" departLane="best" departSpeed="max" from="-155474441#5" to="-368152559#1"/>
    <trip id="bike231" type="bike_bicycle" depart="1445.91" departLane="best" departSpeed="max" from="-368152560" to="-964186810"/>
    <trip id="bike232" type="bike_bicycle" depart="1452.17" departLane="best" from="161086997#1" to="-155474573#0"/>
    <trip id="bike233" type="bike_bicycle" depart="1458.43" departLane="best" from="-168379833#15" to="-168379829#1"/>
    <trip id="bike234" type="bike_bicycle" depart="1464.69" departLane="best" from="168379828#3" to="-155474437#2"/>
    <trip id="bike235" type="bike_bicycle" depart="1470.95" departLane="best" from="155474441#2" to="-161087002#2"/>
    <trip id="bike236" type="bike_bicycle" depart="1477.21" departLane="best" departSpeed="max" from="155474455#0" to="-168367751"/>
    <trip id="bike237" type="bike_bicycle" depart="1483.46" departLane="best" from="155474455#3" to="886841053#2"/>
    <trip id="bike238" type="bike_bicycle" depart="1489.72" departLane="best" from="167409214#3" to="168379829#11"/>