<?xml version="1.0" encoding="UTF-8"?>

<!-- generated on 2023-08-25 10:04:45.841785 by osmWebWizard.py UNKNOWN
<configuration>
    <net-file value="/home/diegocdts/Sumo/_uruguaiana/osm.net.xml.gz"/>
    <output-trip-file value="/home/diegocdts/Sumo/_uruguaiana/osm.passenger.trips.xml"/>
    <route-file value="/home/diegocdts/Sumo/_uruguaiana/osm.passenger.rou.xml"/>
    <prefix value="veh"/>
    <trip-attributes value="departLane=&quot;best&quot;"/>
    <fringe-start-attributes value="departSpeed=&quot;max&quot;"/>
    <vehicle-class value="passenger"/>
    <lanes value="True"/>
    <fringe-factor value="10"/>
    <allow-fringe.min-length value="1000.0"/>
    <via-edge-types value="highway.motorway,highway.motorway_link,highway.trunk_link,highway.primary_link,highway.secondary_link,highway.tertiary_link"/>
    <min-distance value="300.0"/>
    <min-distance.fringe value="10.0"/>
    <remove-loops value="True"/>
    <validate value="True"/>
    <insertion-density value="12.0"/>
</configuration>
-->

<!-- generated on 2023-08-25 10:04:45 by Eclipse SUMO duarouter Version 1.18.0
<configuration xmlns:xsi="http://www.w3.org/2001/XMLSchema-instance" xsi:noNamespaceSchemaLocation="http://sumo.dlr.de/xsd/duarouterConfiguration.xsd">

    <input>
        <net-file value="/home/diegocdts/Sumo/_uruguaiana/osm.net.xml.gz"/>
        <route-files value="/home/diegocdts/Sumo/_uruguaiana/osm.passenger.trips.xml"/>
    </input>

    <output>
        <output-file value="/home/diegocdts/Sumo/_uruguaiana/osm.passenger.trips.xml.tmp"/>
        <alternatives-output value="NUL"/>
        <write-trips value="true"/>
    </output>

    <processing>
        <remove-loops value="true"/>
    </processing>

    <time>
        <begin value="0.0"/>
        <end value="3600.0"/>
    </time>

    <report>
        <no-warnings value="true"/>
        <ignore-errors value="true"/>
        <no-step-log value="true"/>
    </report>

</configuration>
-->

<routes xmlns:xsi="http://www.w3.org/2001/XMLSchema-instance" xsi:noNamespaceSchemaLocation="http://sumo.dlr.de/xsd/routes_file.xsd">
    <vType id="veh_passenger" vClass="passenger"/>
    <trip id="veh0" type="veh_passenger" depart="0.00" departLane="best" departSpeed="max" from="168367751" to="125222993#3"/>
    <trip id="veh1" type="veh_passenger" depart="3.18" departLane="best" departSpeed="max" from="-902915630" to="-168379829#0"/>
    <trip id="veh2" type="veh_passenger" depart="6.37" departLane="best" from="168379829#6" to="168379829#13"/>
    <trip id="veh3" type="veh_passenger" depart="9.55" departLane="best" from="58996570#5" to="-155474455#0"/>
    <trip id="veh4" type="veh_passenger" depart="12.73" departLane="best" from="155474532" to="-155474425#0"/>
    <trip id="veh5" type="veh_passenger" depart="15.91" departLane="best" departSpeed="max" from="-168379833#17" to="155474636#2"/>
    <trip id="veh6" type="veh_passenger" depart="19.10" departLane="best" from="-125222993#4" to="167409214#4"/>
    <trip id="veh7" type="veh_passenger" depart="22.28" departLane="best" from="158699086#5" to="-161087002#1"/>
    <trip id="veh8" type="veh_passenger" depart="25.46" departLane="best" departSpeed="max" from="-168379833#17" to="168367196#2"/>
    <trip id="veh9" type="veh_passenger" depart="28.64" departLane="best" from="168653051#1" to="-1050275127#0"/>
    <trip id="veh10" type="veh_passenger" depart="31.83" departLane="best" from="168379828#1" to="168379833#17"/>
    <trip id="veh11" type="veh_passenger" depart="35.01" departLane="best" from="155474421#0" to="-155474636#1"/>
    <trip id="veh12" type="veh_passenger" depart="38.19" departLane="best" from="886841093#4" to="1049112519#0"/>
    <trip id="veh13" type="veh_passenger" depart="41.38" departLane="best" departSpeed="max" from="-155474466#3" to="-155474455#2"/>
    <trip id="veh14" type="veh_passenger" depart="44.56" departLane="best" from="58996000#6" to="168367203#4"/>
    <trip id="veh15" type="veh_passenger" depart="47.74" departLane="best" departSpeed="max" from="158699090#0" to="944535893"/>
    <trip id="veh16" type="veh_passenger" depart="50.92" departLane="best" departSpeed="max" from="155474435#0" to="161087011#10"/>
    <trip id="veh17" type="veh_passenger" depart="54.11" departLane="best" from="-368152555#0" to="168367752#1"/>
    <trip id="veh18" type="veh_passenger" depart="57.29" departLane="best" departSpeed="max" from="58996006#0" to="-167409214#3"/>
    <trip id="veh19" type="veh_passenger" depart="60.47" departLane="best" departSpeed="max" from="168379828#0" to="-155474427"/>
    <trip id="veh20" type="veh_passenger" depart="63.66" departLane="best" from="168379833#4" to="-368152554"/>
    <trip id="veh21" type="veh_passenger" depart="66.84" departLane="best" departSpeed="max" from="-155474441#5" to="168379829#4"/>
    <trip id="veh22" type="veh_passenger" depart="70.02" departLane="best" departSpeed="max" from="-155474466#3" to="-168379838#1"/>
    <trip id="veh23" type="veh_passenger" depart="73.20" departLane="best" from="168367750#1" to="125222993#6"/>
    <trip id="veh24" type="veh_passenger" depart="76.39" departLane="best" departSpeed="max" from="155474435#0" to="-168367751"/>
    <trip id="veh25" type="veh_passenger" depart="79.57" departLane="best" departSpeed="max" from="-58996566#2" to="887502008"/>
    <trip id="veh26" type="veh_passenger" depart="82.75" departLane="best" departSpeed="max" from="168367751" to="168367206#2"/>
    <trip id="veh27" type="veh_passenger" depart="85.93" departLane="best" from="161087013#1" to="168653046#2"/>
    <trip id="veh28" type="veh_passenger" depart="89.12" departLane="best" from="-155474639#5" to="155474421#3"/>
    <trip id="veh29" type="veh_passenger" depart="92.30" departLane="best" departSpeed="max" from="964203364#0" to="168367753#5"/>
    <trip id="veh30" type="veh_passenger" depart="95.48" departLane="best" departSpeed="max" from="161087002#0" to="-168379829#8"/>
    <trip id="veh31" type="veh_passenger" depart="98.67" departLane="best" from="58996000#2" to="368152555#0"/>
    <trip id="veh32" type="veh_passenger" depart="101.85" departLane="best" from="-168379833#5" to="-155474425#0"/>
    <trip id="veh33" type="veh_passenger" depart="105.03" departLane="best" from="1049112519#0" to="-168379838#0"/>
    <trip id="veh34" type="veh_passenger" depart="108.21" departLane="best" from="-168379833#13" to="892485460"/>
    <trip id="veh35" type="veh_passenger" depart="111.40" departLane="best" from="58996565#6" to="-886841056#0"/>
    <trip id="veh36" type="veh_passenger" depart="114.58" departLane="best" departSpeed="max" from="168367753#0" to="155474435#7"/>
    <trip id="veh37" type="veh_passenger" depart="117.76" departLane="best" from="886841052#1" to="155474552#12"/>
    <trip id="veh38" type="veh_passenger" depart="120.95" departLane="best" departSpeed="max" from="-58996566#2" to="-168379833#0"/>
    <trip id="veh39" type="veh_passenger" depart="124.13" departLane="best" departSpeed="max" from="161087002#0" to="-168379833#6"/>
    <trip id="veh40" type="veh_passenger" depart="127.31" departLane="best" departSpeed="max" from="161087013#0" to="886841053#1"/>
    <trip id="veh41" type="veh_passenger" depart="130.49" departLane="best" departSpeed="max" from="155474455#0" to="-168379829#0"/>
    <trip id="veh42" type="veh_passenger" depart="133.68" departLane="best" departSpeed="max" from="964203364#0" to="155474639#3"/>
    <trip id="veh43" type="veh_passenger" depart="136.86" departLane="best" from="-155474466#2" to="-155474427"/>
    <trip id="veh44" type="veh_passenger" depart="140.04" departLane="best" from="155474552#1" to="168367753#14"/>
    <trip id="veh45" type="veh_passenger" depart="143.22" departLane="best" departSpeed="max" from="168379838#0" to="155474441#5"/>
    <trip id="veh46" type="veh_passenger" depart="146.41" departLane="best" departSpeed="max" from="-155474437#6" to="155474421#3"/>
    <trip id="veh47" type="veh_passenger" depart="149.59" departLane="best" departSpeed="max" from="964203364#0" to="158699086#8"/>
    <trip id="veh48" type="veh_passenger" depart="152.77" departLane="best" departSpeed="max" from="892485463#0" to="58996570#5"/>
    <trip id="veh49" type="veh_passenger" depart="155.96" departLane="best" departSpeed="max" from="-122119743#4" to="168379837#6"/>
    <trip id="veh50" type="veh_passenger" depart="159.14" departLane="best" from="168369538#2" to="161086990#2"/>
    <trip id="veh51" type="veh_passenger" depart="162.32" departLane="best" departSpeed="max" from="-58996566#2" to="168367753#6"/>
    <trip id="veh52" type="veh_passenger" depart="165.50" departLane="best" from="155474552#11" to="155474455#4"/>
    <trip id="veh53" type="veh_passenger" depart="168.69" departLane="best" from="-155474573#0" to="902915630"/>
    <trip id="veh54" type="veh_passenger" depart="171.87" departLane="best" from="58996565#5" to="-168379833#7"/>
    <trip id="veh55" type="veh_passenger" depart="175.05" departLane="best" departSpeed="max" from="158699086#0" to="-161087002#4"/>
    <trip id="veh56" type="veh_passenger" depart="178.24" departLane="best" from="823589201#1" to="58996570#8"/>
    <trip id="veh57" type="veh_passenger" depart="181.42" departLane="best" departSpeed="max" from="-944535893" to="168367753#4"/>
    <trip id="veh58" type="veh_passenger" depart="184.60" departLane="best" from="168367196#1" to="-155474636#0"/>
    <trip id="veh59" type="veh_passenger" depart="187.78" departLane="best" from="168379833#4" to="887507333"/>
    <trip id="veh60" type="veh_passenger" depart="190.97" departLane="best" from="168379837#1" to="158699086#8"/>
    <trip id="veh61" type="veh_passenger" depart="194.15" departLane="best" from="-1049111723#0" to="-964203364#0"/>
    <trip id="veh62" type="veh_passenger" depart="197.33" departLane="best" departSpeed="max" from="-122119743#4" to="886841091#5"/>
    <trip id="veh63" type="veh_passenger" depart="200.51" departLane="best" from="58996566#0" to="58996565#8"/>
    <trip id="veh64" type="veh_passenger" depart="203.70" departLane="best" from="-948004641#0" to="-155474435#0"/>
    <trip id="veh65" type="veh_passenger" depart="206.88" departLane="best" from="58996565#7" to="902915630"/>
    <trip id="veh66" type="veh_passenger" depart="210.06" departLane="best" from="-155474455#2" to="155474573#0"/>
    <trip id="veh67" type="veh_passenger" depart="213.25" departLane="best" from="-155474441#1" to="168653051#2"/>
    <trip id="veh68" type="veh_passenger" depart="216.43" departLane="best" from="168379833#8" to="-155474552#4"/>
    <trip id="veh69" type="veh_passenger" depart="219.61" departLane="best" from="155474639#1" to="161087011#0"/>
    <trip id="veh70" type="veh_passenger" depart="222.79" departLane="best" departSpeed="max" from="-58996566#2" to="58996570#8"/>
    <trip id="veh71" type="veh_passenger" depart="225.98" departLane="best" from="155474537" to="-168367751"/>
    <trip id="veh72" type="veh_passenger" depart="229.16" departLane="best" departSpeed="max" from="158699090#0" to="168379828#2"/>
    <trip id="veh73" type="veh_passenger" depart="232.34" departLane="best" from="168379829#5" to="-58996566#1"/>
    <trip id="veh74" type="veh_passenger" depart="235.53" departLane="best" departSpeed="max" from="964203364#0" to="168369538#2"/>
    <trip id="veh75" type="veh_passenger" depart="238.71" departLane="best" from="-155474552#12" to="158699086#2"/>
    <trip id="veh76" type="veh_passenger" depart="241.89" departLane="best" departSpeed="max" from="-155474552#15" to="-168379829#0"/>
    <trip id="veh77" type="veh_passenger" depart="245.07" departLane="best" from="125222993#5" to="168367196#2"/>
    <trip id="veh78" type="veh_passenger" depart="248.26" departLane="best" from="-168379833#6" to="-168379829#0"/>
    <trip id="veh79" type="veh_passenger" depart="251.44" departLane="best" from="-155474441#3" to="168367753#14"/>
    <trip id="veh80" type="veh_passenger" depart="254.62" departLane="best" from="-168379833#5" to="886841053#2"/>
    <trip id="veh81" type="veh_passenger" depart="257.80" departLane="best" departSpeed="max" from="58996006#0" to="-155474435#7"/>
    <trip id="veh82" type="veh_passenger" depart="260.99" departLane="best" from="-368152552" to="168379829#13"/>
    <trip id="veh83" type="veh_passenger" depart="264.17" departLane="best" from="-168379833#16" to="-155474552#7"/>
    <trip id="veh84" type="veh_passenger" depart="267.35" departLane="best" from="886841091#0" to="161087011#9"/>
    <trip id="veh85" type="veh_passenger" depart="270.54" departLane="best" from="155474636#1" to="368152560"/>
    <trip id="veh86" type="veh_passenger" depart="273.72" departLane="best" from="168379828#3" to="-161087013#0"/>
    <trip id="veh87" type="veh_passenger" depart="276.90" departLane="best" departSpeed="max" from="-155474466#3" to="-155474455#1"/>
    <trip id="veh88" type="veh_passenger" depart="280.08" departLane="best" departSpeed="max" from="155474552#0" to="155474552#15"/>
    <trip id="veh89" type="veh_passenger" depart="283.27" departLane="best" from="168379829#1" to="168379829#13"/>
    <trip id="veh90" type="veh_passenger" depart="286.45" departLane="best" from="963626872#1" to="-155474455#4"/>
    <trip id="veh91" type="veh_passenger" depart="289.63" departLane="best" departSpeed="max" from="155474455#0" to="1050275127#1"/>
    <trip id="veh92" type="veh_passenger" depart="292.82" departLane="best" departSpeed="max" from="58996006#0" to="-168379833#0"/>
    <trip id="veh93" type="veh_passenger" depart="296.00" departLane="best" departSpeed="max" from="-168379829#13" to="155474466#3"/>
    <trip id="veh94" type="veh_passenger" depart="299.18" departLane="best" from="155474532" to="-168379838#2"/>
    <trip id="veh95" type="veh_passenger" depart="302.36" departLane="best" departSpeed="max" from="-368152560" to="886841091#5"/>
    <trip id="veh96" type="veh_passenger" depart="305.55" departLane="best" from="155474552#4" to="58996570#6"/>
    <trip id="veh97" type="veh_passenger" depart="308.73" departLane="best" from="161086990#3" to="-155474427"/>
    <trip id="veh98" type="veh_passenger" depart="311.91" departLane="best" from="964203364#1" to="58996566#0"/>
    <trip id="veh99" type="veh_passenger" depart="315.09" departLane="best" from="58996000#7" to="-155474645#0"/>
    <trip id="veh100" type="veh_passenger" depart="318.28" departLane="best" departSpeed="max" from="155474645#0" to="-168367751"/>
    <trip id="veh101" type="veh_passenger" depart="321.46" departLane="best" departSpeed="max" from="155474455#0" to="-155474435#0"/>
    <trip id="veh102" type="veh_passenger" depart="324.64" departLane="best" from="155474435#1" to="158699086#6"/>
    <trip id="veh103" type="veh_passenger" depart="327.83" departLane="best" departSpeed="max" from="-58996566#2" to="368152560"/>
    <trip id="veh104" type="veh_passenger" depart="331.01" departLane="best" from="-155474573#1" to="155474441#5"/>
    <trip id="veh105" type="veh_passenger" depart="334.19" departLane="best" from="887507333" to="964201120"/>
    <trip id="veh106" type="veh_passenger" depart="337.37" departLane="best" departSpeed="max" from="161087002#0" to="168379837#4"/>
    <trip id="veh107" type="veh_passenger" depart="340.56" departLane="best" from="-155474632#4" to="-368152559#0"/>
    <trip id="veh108" type="veh_passenger" depart="343.74" departLane="best" departSpeed="max" from="892485463#0" to="-167409214#5"/>
    <trip id="veh109" type="veh_passenger" depart="346.92" departLane="best" from="158699090#1" to="168653046#4"/>
    <trip id="veh110" type="veh_passenger" depart="350.10" departLane="best" departSpeed="max" from="-155474437#6" to="168367188#1"/>
    <trip id="veh111" type="veh_passenger" depart="353.29" departLane="best" departSpeed="max" from="158699086#0" to="58996570#2"/>
    <trip id="veh112" type="veh_passenger" depart="356.47" departLane="best" from="155474639#0" to="902915632"/>
    <trip id="veh113" type="veh_passenger" depart="359.65" departLane="best" departSpeed="max" from="-155474441#5" to="-161087013#0"/>
    <trip id="veh114" type="veh_passenger" depart="362.84" departLane="best" from="167409213" to="168379829#13"/>
    <trip id="veh115" type="veh_passenger" depart="366.02" departLane="best" from="-168379838#1" to="155474552#1"/>
    <trip id="veh116" type="veh_passenger" depart="369.20" departLane="best" from="58996570#4" to="-168379833#0"/>
    <trip id="veh117" type="veh_passenger" depart="372.38" departLane="best" from="-167409212" to="168367752#2"/>
    <trip id="veh118" type="veh_passenger" depart="375.57" departLane="best" from="155474516" to="168367188#0"/>
    <trip id="veh119" type="veh_passenger" depart="378.75" departLane="best" from="158699086#5" to="886841093#3"/>
    <trip id="veh120" type="veh_passenger" depart="381.93" departLane="best" from="-168379829#7" to="168379837#2"/>
    <trip id="veh121" type="veh_passenger" depart="385.12" departLane="best" from="-368152553" to="155474435#8"/>
    <trip id="veh122" type="veh_passenger" depart="388.30" departLane="best" from="168367753#5" to="-58996006#0"/>
    <trip id="veh123" type="veh_passenger" depart="391.48" departLane="best" from="1049112519#1" to="168653046#4"/>
    <trip id="veh124" type="veh_passenger" depart="394.66" departLane="best" from="-155474441#4" to="155474552#11"/>
    <trip id="veh125" type="veh_passenger" depart="397.85" departLane="best" departSpeed="max" from="964203364#0" to="964201120"/>
    <trip id="veh126" type="veh_passenger" depart="401.03" departLane="best" departSpeed="max" from="-155474441#5" to="-168367751"/>
    <trip id="veh127" type="veh_passenger" depart="404.21" departLane="best" departSpeed="max" from="-58996566#2" to="886841093#2"/>
    <trip id="veh128" type="veh_passenger" depart="407.39" departLane="best" from="58996570#0" to="58996570#8"/>
    <trip id="veh129" type="veh_passenger" depart="410.58" departLane="best" departSpeed="max" from="155474435#0" to="-155474639#0"/>
    <trip id="veh130" type="veh_passenger" depart="413.76" departLane="best" from="-368152559#1" to="168379833#17"/>
    <trip id="veh131" type="veh_passenger" depart="416.94" departLane="best" from="168367196#3" to="-964201119"/>
    <trip id="veh132" type="veh_passenger" depart="420.13" departLane="best" departSpeed="max" from="168367753#0" to="-1050275127#0"/>
    <trip id="veh133" type="veh_passenger" depart="423.31" departLane="best" from="-368152552" to="-58996006#0"/>
    <trip id="veh134" type="veh_passenger" depart="426.49" departLane="best" departSpeed="max" from="168367753#0" to="887507333"/>
    <trip id="veh135" type="veh_passenger" depart="429.67" departLane="best" from="-155474552#9" to="-155474552#0"/>
    <trip id="veh136" type="veh_passenger" depart="432.86" departLane="best" from="-155474532" to="161087011#10"/>
    <trip id="veh137" type="veh_passenger" depart="436.04" departLane="best" from="-886841056#0" to="168367203#4"/>
    <trip id="veh138" type="veh_passenger" depart="439.22" departLane="best" from="168379828#3" to="168367188#0"/>
    <trip id="veh139" type="veh_passenger" depart="442.41" departLane="best" from="168367750#0" to="-168379833#7"/>
    <trip id="veh140" type="veh_passenger" depart="445.59" departLane="best" departSpeed="max" from="155474645#0" to="886841053#2"/>
    <trip id="veh141" type="veh_passenger" depart="448.77" departLane="best" from="58996000#5" to="-155474455#0"/>
    <trip id="veh142" type="veh_passenger" depart="451.95" departLane="best" departSpeed="max" from="155474552#0" to="-168379838#0"/>
    <trip id="veh143" type="veh_passenger" depart="455.14" departLane="best" from="-1049112519#0" to="168663755#2"/>
    <trip id="veh144" type="veh_passenger" depart="458.32" departLane="best" from="168367750#2" to="-168379833#5"/>
    <trip id="veh145" type="veh_passenger" depart="461.50" departLane="best" departSpeed="max" from="168379833#0" to="161087011#1"/>
    <trip id="veh146" type="veh_passenger" depart="464.68" departLane="best" departSpeed="max" from="155474552#0" to="-1050275127#0"/>
    <trip id="veh147" type="veh_passenger" depart="467.87" departLane="best" departSpeed="max" from="-155474441#5" to="58996570#8"/>
    <trip id="veh148" type="veh_passenger" depart="471.05" departLane="best" departSpeed="max" from="621794208#0" to="-161087002#2"/>
    <trip id="veh149" type="veh_passenger" depart="474.23" departLane="best" from="58995994#0" to="167409214#8"/>
    <trip id="veh150" type="veh_passenger" depart="477.42" departLane="best" departSpeed="max" from="-155474599" to="155474552#3"/>
    <trip id="veh151" type="veh_passenger" depart="480.60" departLane="best" from="948004641#1" to="886841053#2"/>
    <trip id="veh152" type="veh_passenger" depart="483.78" departLane="best" departSpeed="max" from="168379838#0" to="58996570#5"/>
    <trip id="veh153" type="veh_passenger" depart="486.96" departLane="best" departSpeed="max" from="621794208#0" to="-168367751"/>
    <trip id="veh154" type="veh_passenger" depart="490.15" departLane="best" departSpeed="max" from="-368152560" to="-155474508"/>
    <trip id="veh155" type="veh_passenger" depart="493.33" departLane="best" from="168379837#2" to="58996570#8"/>
    <trip id="veh156" type="veh_passenger" depart="496.51" departLane="best" departSpeed="max" from="155474455#0" to="168367752#3"/>
    <trip id="veh157" type="veh_passenger" depart="499.70" departLane="best" from="155474632#4" to="886841092"/>
    <trip id="veh158" type="veh_passenger" depart="502.88" departLane="best" from="58996006#1" to="944535893"/>
    <trip id="veh159" type="veh_passenger" depart="506.06" departLane="best" from="168663755#0" to="58996570#8"/>
    <trip id="veh160" type="veh_passenger" depart="509.24" departLane="best" from="-125222993#3" to="168653046#4"/>
    <trip id="veh161" type="veh_passenger" depart="512.43" departLane="best" from="-122119743#3" to="886841092"/>
    <trip id="veh162" type="veh_passenger" depart="515.61" departLane="best" from="168653046#1" to="58996570#7"/>
    <trip id="veh163" type="veh_passenger" depart="518.79" departLane="best" from="168663755#0" to="-168379838#0"/>
    <trip id="veh164" type="veh_passenger" depart="521.97" departLane="best" departSpeed="max" from="168379838#0" to="-155474537"/>
    <trip id="veh165" type="veh_passenger" depart="525.16" departLane="best" from="58996565#2" to="58996570#4"/>
    <trip id="veh166" type="veh_passenger" depart="528.34" departLane="best" departSpeed="max" from="-168379833#17" to="58996565#0"/>
    <trip id="veh167" type="veh_passenger" depart="531.52" departLane="best" from="155474632#4" to="-58996006#0"/>
    <trip id="veh168" type="veh_passenger" depart="534.71" departLane="best" departSpeed="max" from="168379838#0" to="-168379829#1"/>
    <trip id="veh169" type="veh_passenger" depart="537.89" departLane="best" from="-125222993#2" to="-161087013#1"/>
    <trip id="veh170" type="veh_passenger" depart="541.07" departLane="best" departSpeed="max" from="1050275127#0" to="58996570#7"/>
    <trip id="veh171" type="veh_passenger" depart="544.25" departLane="best" departSpeed="max" from="892485463#0" to="-168379838#2"/>
    <trip id="veh172" type="veh_passenger" depart="547.44" departLane="best" departSpeed="max" from="168367751" to="155474437#2"/>
    <trip id="veh173" type="veh_passenger" depart="550.62" departLane="best" from="948004641#0" to="161086990#1"/>
    <trip id="veh175" type="veh_passenger" depart="556.99" departLane="best" departSpeed="max" from="892485463#0" to="-161087002#2"/>
    <trip id="veh176" type="veh_passenger" depart="560.17" departLane="best" from="892485460" to="-168379833#9"/>
    <trip id="veh177" type="veh_passenger" depart="563.35" departLane="best" from="-155474537" to="155474455#4"/>
    <trip id="veh178" type="veh_passenger" depart="566.53" departLane="best" from="168379829#1" to="-823589201#1"/>
    <trip id="veh179" type="veh_passenger" depart="569.72" departLane="best" departSpeed="max" from="-368152560" to="168379833#4"/>
    <trip id="veh180" type="veh_passenger" depart="572.90" departLane="best" from="-1049111723#1" to="886841091#5"/>
    <trip id="veh181" type="veh_passenger" depart="576.08" departLane="best" departSpeed="max" from="158699090#0" to="168379837#5"/>
    <trip id="veh182" type="veh_passenger" depart="579.26" departLane="best" departSpeed="max" from="168379833#0" to="168379829#13"/>
    <trip id="veh183" type="veh_passenger" depart="582.45" departLane="best" departSpeed="max" from="155474427" to="155474435#6"/>
    <trip id="veh184" type="veh_passenger" depart="585.63" departLane="best" from="168367753#1" to="-964203364#0"/>
    <trip id="veh185" type="veh_passenger" depart="588.81" departLane="best" from="1049112518" to="58996566#2"/>
    <trip id="veh186" type="veh_passenger" depart="592.00" departLane="best" departSpeed="max" from="168379829#0" to="-58996006#0"/>
    <trip id="veh187" type="veh_passenger" depart="595.18" departLane="best" from="-964201119" to="155474437#6"/>
    <trip id="veh188" type="veh_passenger" depart="598.36" departLane="best" departSpeed="max" from="155474455#0" to="-368152555#2"/>
    <trip id="veh189" type="veh_passenger" depart="601.54" departLane="best" from="-155474552#3" to="155474441#5"/>
    <trip id="veh190" type="veh_passenger" depart="604.73" departLane="best" from="158699086#8" to="168379829#13"/>
    <trip id="veh191" type="veh_passenger" depart="607.91" departLane="best" departSpeed="max" from="621794208#0" to="168367750#2"/>
    <trip id="veh192" type="veh_passenger" depart="611.09" departLane="best" departSpeed="max" from="-944535893" to="-161087002#5"/>
    <trip id="veh193" type="veh_passenger" depart="614.27" departLane="best" departSpeed="max" from="155474552#0" to="167409214#6"/>
    <trip id="veh194" type="veh_passenger" depart="617.46" departLane="best" departSpeed="max" from="168367753#0" to="155474552#15"/>
    <trip id="veh195" type="veh_passenger" depart="620.64" departLane="best" from="155474552#3" to="-168367751"/>
    <trip id="veh196" type="veh_passenger" depart="623.82" departLane="best" from="155474636#2" to="886841053#2"/>
    <trip id="veh197" type="veh_passenger" depart="627.01" departLane="best" departSpeed="max" from="168379838#0" to="-155474645#0"/>
    <trip id="veh198" type="veh_passenger" depart="630.19" departLane="best" from="155474455#1" to="158699086#1"/>
    <trip id="veh199" type="veh_passenger" depart="633.37" departLane="best" from="168367206#5" to="1049112518"/>
    <trip id="veh200" type="veh_passenger" depart="636.55" departLane="best" departSpeed="max" from="368152554" to="168653046#4"/>
    <trip id="veh201" type="veh_passenger" depart="639.74" departLane="best" from="168367753#6" to="-168379829#0"/>
    <trip id="veh202" type="veh_passenger" depart="642.92" departLane="best" from="168379829#3" to="-125222993#2"/>
    <trip id="veh203" type="veh_passenger" depart="646.10" departLane="best" from="-368152559#1" to="155474552#4"/>
    <trip id="veh204" type="veh_passenger" depart="649.29" departLane="best" from="58996003#0" to="-155474437#0"/>
    <trip id="veh205" type="veh_passenger" depart="652.47" departLane="best" from="155474455#5" to="168367753#14"/>
    <trip id="veh206" type="veh_passenger" depart="655.65" departLane="best" departSpeed="max" from="-168379829#13" to="168379833#17"/>
    <trip id="veh207" type="veh_passenger" depart="658.83" departLane="best" departSpeed="max" from="158699086#0" to="-168379833#0"/>
    <trip id="veh208" type="veh_passenger" depart="662.02" departLane="best" departSpeed="max" from="168367753#0" to="-1049112520"/>
    <trip id="veh209" type="veh_passenger" depart="665.20" departLane="best" from="168379833#1" to="168663755#1"/>
    <trip id="veh210" type="veh_passenger" depart="668.38" departLane="best" from="155474521" to="155474441#5"/>
    <trip id="veh211" type="veh_passenger" depart="671.56" departLane="best" from="167409214#3" to="902915632"/>
    <trip id="veh212" type="veh_passenger" depart="674.75" departLane="best" from="158699086#3" to="-155474427"/>
    <trip id="veh213" type="veh_passenger" depart="677.93" departLane="best" departSpeed="max" from="-368152560" to="58996570#0"/>
    <trip id="veh214" type="veh_passenger" depart="681.11" departLane="best" from="168367753#13" to="-964201119"/>
    <trip id="veh215" type="veh_passenger" depart="684.30" departLane="best" from="167409213" to="902915630"/>
    <trip id="veh216" type="veh_passenger" depart="687.48" departLane="best" from="58996570#5" to="-58996006#1"/>
    <trip id="veh217" type="veh_passenger" depart="690.66" departLane="best" departSpeed="max" from="168379829#0" to="-155474636#1"/>
    <trip id="veh218" type="veh_passenger" depart="693.84" departLane="best" from="-368152555#1" to="161087002#5"/>
    <trip id="veh219" type="veh_passenger" depart="697.03" departLane="best" from="58996570#7" to="168653046#4"/>
    <trip id="veh220" type="veh_passenger" depart="700.21" departLane="best" from="155474639#0" to="-168379833#3"/>
    <trip id="veh221" type="veh_passenger" depart="703.39" departLane="best" departSpeed="max" from="-368152560" to="168367753#3"/>
    <trip id="veh222" type="veh_passenger" depart="706.58" departLane="best" from="168379833#8" to="158699086#4"/>
    <trip id="veh223" type="veh_passenger" depart="709.76" departLane="best" departSpeed="max" from="168367206#0" to="-168379838#0"/>
    <trip id="veh224" type="veh_passenger" depart="712.94" departLane="best" departSpeed="max" from="-155474441#5" to="-368152554"/>
    <trip id="veh225" type="veh_passenger" depart="716.12" departLane="best" from="886841056#0" to="-948004641#1"/>
    <trip id="veh226" type="veh_passenger" depart="719.31" departLane="best" departSpeed="max" from="158699090#0" to="-155474573#0"/>
    <trip id="veh227" type="veh_passenger" depart="722.49" departLane="best" from="168379833#7" to="168379833#15"/>
    <trip id="veh228" type="veh_passenger" depart="725.67" departLane="best" departSpeed="max" from="168379828#0" to="155474435#1"/>