<?xml version="1.0" encoding="UTF-8"?>

<!-- generated on 2023-08-25 10:04:47.318584 by osmWebWizard.py UNKNOWN
<configuration>
    <net-file value="/home/diegocdts/Sumo/_uruguaiana/osm.net.xml.gz"/>
    <output-trip-file value="/home/diegocdts/Sumo/_uruguaiana/osm.truck.trips.xml"/>
    <route-file value="/home/diegocdts/Sumo/_uruguaiana/osm.truck.rou.xml"/>
    <prefix value="truck"/>
    <trip-attributes value="departLane=&quot;best&quot;"/>
    <fringe-start-attributes value="departSpeed=&quot;max&quot;"/>
    <vehicle-class value="truck"/>
    <fringe-factor value="5"/>
    <vclass value="truck"/>
    <via-edge-types value="highway.motorway,highway.motorway_link,highway.trunk_link,highway.primary_link,highway.secondary_link,highway.tertiary_link"/>
    <min-distance value="600.0"/>
    <min-distance.fringe value="10.0"/>
    <remove-loops value="True"/>
    <validate value="True"/>
    <insertion-density value="8.0"/>
</configuration>
-->

<!-- generated on 2023-08-25 10:04:47 by Eclipse SUMO duarouter Version 1.18.0
<configuration xmlns:xsi="http://www.w3.org/2001/XMLSchema-instance" xsi:noNamespaceSchemaLocation="http://sumo.dlr.de/xsd/duarouterConfiguration.xsd">

    <input>
        <net-file value="/home/diegocdts/Sumo/_uruguaiana/osm.net.xml.gz"/>
        <route-files value="/home/diegocdts/Sumo/_uruguaiana/osm.truck.trips.xml"/>
    </input>

    <output>
        <output-file value="/home/diegocdts/Sumo/_uruguaiana/osm.truck.trips.xml.tmp"/>
        <alternatives-output value="NUL"/>
        <write-trips value="true"/>
    </output>

    <processing>
        <remove-loops value="true"/>
    </processing>

    <time>
        <begin value="0.0"/>
        <end value="3600.0"/>
    </time>

    <report>
        <no-warnings value="true"/>
        <ignore-errors value="true"/>
        <no-step-log value="true"/>
    </report>

</configuration>
-->

<routes xmlns:xsi="http://www.w3.org/2001/XMLSchema-instance" xsi:noNamespaceSchemaLocation="http://sumo.dlr.de/xsd/routes_file.xsd">
    <vType id="truck_truck" vClass="truck"/>
    <trip id="truck0" type="truck_truck" depart="0.00" departLane="best" from="168367206#3" to="125222993#1"/>
    <trip id="truck1" type="truck_truck" depart="4.77" departLane="best" departSpeed="max" from="-368152560" to="-168367751"/>
    <trip id="truck2" type="truck_truck" depart="9.55" departLane="best" from="168379829#7" to="168369538#10"/>
    <trip id="truck3" type="truck_truck" depart="14.32" departLane="best" from="58996570#2" to="-155474455#0"/>
    <trip id="truck4" type="truck_truck" depart="19.10" departLane="best" departSpeed="max" from="155474455#0" to="125222993#5"/>
    <trip id="truck5" type="truck_truck" depart="23.87" departLane="best" from="-125222993#2" to="-161087013#1"/>
    <trip id="truck6" type="truck_truck" depart="28.64" departLane="best" departSpeed="max" from="168367751" to="158699090#2"/>
    <trip id="truck7" type="truck_truck" depart="33.42" departLane="best" from="168379829#6" to="167409213"/>
    <trip id="truck8" type="truck_truck" depart="38.19" departLane="best" from="168663754" to="1049112519#1"/>
    <trip id="truck9" type="truck_truck" depart="42.97" departLane="best" departSpeed="max" from="1050275127#0" to="-155474636#0"/>
    <trip id="truck10" type="truck_truck" depart="47.74" departLane="best" from="886841093#3" to="-964203364#0"/>
    <trip id="truck11" type="truck_truck" depart="52.52" departLane="best" from="58996000#2" to="168367188#1"/>
    <trip id="truck12" type="truck_truck" depart="57.29" departLane="best" from="168379828#3" to="168379833#16"/>
    <trip id="truck13" type="truck_truck" depart="62.06" departLane="best" departSpeed="max" from="158699090#0" to="944535893"/>
    <trip id="truck14" type="truck_truck" depart="66.84" departLane="best" departSpeed="max" from="155474427" to="161086997#0"/>
    <trip id="truck15" type="truck_truck" depart="71.61" departLane="best" from="368152555#0" to="168367203#2"/>
    <trip id="truck17" type="truck_truck" depart="81.16" departLane="best" from="158699086#6" to="-155474427"/>
    <trip id="truck18" type="truck_truck" depart="85.93" departLane="best" from="-168379833#10" to="-368152551"/>
    <trip id="truck19" type="truck_truck" depart="90.71" departLane="best" departSpeed="max" from="-155474441#5" to="168379829#11"/>
    <trip id="truck20" type="truck_truck" depart="95.48" departLane="best" departSpeed="max" from="-155474466#3" to="168379833#9"/>
    <trip id="truck21" type="truck_truck" depart="100.26" departLane="best" from="168367206#1" to="125222993#1"/>
    <trip id="truck22" type="truck_truck" depart="105.03" departLane="best" from="-368152555#2" to="886841091#5"/>
    <trip id="truck23" type="truck_truck" depart="109.81" departLane="best" from="168367750#3" to="125222993#0"/>
    <trip id="truck24" type="truck_truck" depart="114.58" departLane="best" from="155474639#4" to="168379833#16"/>
    <trip id="truck25" type="truck_truck" depart="119.35" departLane="best" from="155474636#2" to="155474421#0"/>
    <trip id="truck26" type="truck_truck" depart="124.13" departLane="best" departSpeed="max" from="161087002#0" to="168369538#6"/>
    <trip id="truck27" type="truck_truck" depart="128.90" departLane="best" from="58995994#4" to="168653046#4"/>
    <trip id="truck28" type="truck_truck" depart="133.68" departLane="best" from="-168379833#11" to="-155474425#0"/>
    <trip id="truck29" type="truck_truck" depart="138.45" departLane="best" departSpeed="max" from="-944535893" to="-168379833#2"/>
    <trip id="truck30" type="truck_truck" depart="143.22" departLane="best" departSpeed="max" from="-168379829#13" to="886841093#3"/>
    <trip id="truck31" type="truck_truck" depart="148.00" departLane="best" from="58996565#1" to="-58996006#0"/>
    <trip id="truck32" type="truck_truck" depart="152.77" departLane="best" departSpeed="max" from="168367751" to="-155474435#1"/>
    <trip id="truck33" type="truck_truck" depart="157.55" departLane="best" from="823589201#1" to="155474516"/>
    <trip id="truck34" type="truck_truck" depart="162.32" departLane="best" departSpeed="max" from="161087002#0" to="-168379833#14"/>
    <trip id="truck35" type="truck_truck" depart="167.10" departLane="best" from="161087011#9" to="823589201#0"/>
    <trip id="truck36" type="truck_truck" depart="171.87" departLane="best" from="155474435#8" to="-168367751"/>
    <trip id="truck37" type="truck_truck" depart="176.64" departLane="best" departSpeed="max" from="964203364#0" to="155474599"/>
    <trip id="truck38" type="truck_truck" depart="181.42" departLane="best" from="-155474455#4" to="-155474427"/>
    <trip id="truck39" type="truck_truck" depart="186.19" departLane="best" from="155474532" to="168367203#4"/>
    <trip id="truck40" type="truck_truck" depart="190.97" departLane="best" departSpeed="max" from="168379838#0" to="155474437#6"/>
    <trip id="truck41" type="truck_truck" depart="195.74" departLane="best" from="-155474437#5" to="155474421#1"/>
    <trip id="truck42" type="truck_truck" depart="200.51" departLane="best" departSpeed="max" from="964203364#0" to="155474645#1"/>
    <trip id="truck43" type="truck_truck" depart="205.29" departLane="best" departSpeed="max" from="892485463#0" to="58996565#8"/>
    <trip id="truck44" type="truck_truck" depart="210.06" departLane="best" from="-122119743#1" to="168379833#10"/>
    <trip id="truck45" type="truck_truck" depart="214.84" departLane="best" from="-368152555#2" to="168367750#3"/>
    <trip id="truck46" type="truck_truck" depart="219.61" departLane="best" from="-155474537" to="155474441#5"/>
    <trip id="truck47" type="truck_truck" depart="224.39" departLane="best" from="-155474552#11" to="892485463#2"/>
    <trip id="truck48" type="truck_truck" depart="229.16" departLane="best" from="58996565#1" to="168379833#14"/>
    <trip id="truck49" type="truck_truck" depart="233.93" departLane="best" from="155474639#1" to="-155474645#0"/>
    <trip id="truck50" type="truck_truck" depart="238.71" departLane="best" from="-823589201#0" to="58996566#2"/>
    <trip id="truck51" type="truck_truck" depart="243.48" departLane="best" departSpeed="max" from="-902915630" to="168367750#2"/>
    <trip id="truck52" type="truck_truck" depart="248.26" departLane="best" from="168379833#3" to="158699086#7"/>
    <trip id="truck53" type="truck_truck" depart="253.03" departLane="best" departSpeed="max" from="168379837#0" to="155474645#1"/>
    <trip id="truck54" type="truck_truck" depart="257.80" departLane="best" from="-1049111723#0" to="-886841056#0"/>
    <trip id="truck55" type="truck_truck" depart="262.58" departLane="best" departSpeed="max" from="-122119743#4" to="886841091#4"/>
    <trip id="truck56" type="truck_truck" depart="267.35" departLane="best" from="58996565#3" to="58996000#6"/>
    <trip id="truck57" type="truck_truck" depart="272.13" departLane="best" departSpeed="max" from="-902915632" to="-155474435#1"/>
    <trip id="truck58" type="truck_truck" depart="276.90" departLane="best" departSpeed="max" from="-155474441#5" to="155474552#5"/>
    <trip id="truck59" type="truck_truck" depart="281.68" departLane="best" departSpeed="max" from="-155474437#6" to="-168379838#1"/>
    <trip id="truck60" type="truck_truck" depart="286.45" departLane="best" from="168379833#5" to="155474552#14"/>
    <trip id="truck61" type="truck_truck" depart="291.22" departLane="best" from="-368152555#0" to="58996566#2"/>
    <trip id="truck62" type="truck_truck" depart="296.00" departLane="best" departSpeed="max" from="155474455#0" to="-167409214#7"/>
    <trip id="truck63" type="truck_truck" depart="300.77" departLane="best" departSpeed="max" from="158699090#0" to="168379833#16"/>
    <trip id="truck64" type="truck_truck" depart="305.55" departLane="best" from="-168367188#1" to="-58996006#0"/>
    <trip id="truck65" type="truck_truck" depart="310.32" departLane="best" departSpeed="max" from="964203364#0" to="168367753#10"/>
    <trip id="truck66" type="truck_truck" depart="315.09" departLane="best" from="155474520" to="-155474636#1"/>
    <trip id="truck67" type="truck_truck" depart="319.87" departLane="best" from="-155474552#14" to="-168379829#0"/>
    <trip id="truck68" type="truck_truck" depart="324.64" departLane="best" departSpeed="max" from="1050275127#0" to="167409213"/>
    <trip id="truck69" type="truck_truck" depart="329.42" departLane="best" from="168379833#12" to="-168367751"/>
    <trip id="truck70" type="truck_truck" depart="334.19" departLane="best" departSpeed="max" from="-155474437#6" to="168367206#2"/>
    <trip id="truck71" type="truck_truck" depart="338.97" departLane="best" from="-168379833#11" to="886841052#3"/>
    <trip id="truck72" type="truck_truck" depart="343.74" departLane="best" from="58996003#2" to="-155474437#0"/>
    <trip id="truck73" type="truck_truck" depart="348.51" departLane="best" departSpeed="max" from="-168379833#17" to="168367753#7"/>
    <trip id="truck74" type="truck_truck" depart="353.29" departLane="best" from="886841056#0" to="161087011#10"/>
    <trip id="truck75" type="truck_truck" depart="358.06" departLane="best" from="155474571#0" to="168653051#2"/>
    <trip id="truck76" type="truck_truck" depart="362.84" departLane="best" from="168653051#1" to="-161087002#6"/>
    <trip id="truck77" type="truck_truck" depart="367.61" departLane="best" departSpeed="max" from="-155474466#3" to="155474441#4"/>
    <trip id="truck78" type="truck_truck" depart="372.38" departLane="best" departSpeed="max" from="155474455#0" to="-155474552#10"/>
    <trip id="truck79" type="truck_truck" depart="377.16" departLane="best" from="168379829#2" to="168369537"/>
    <trip id="truck80" type="truck_truck" depart="381.93" departLane="best" from="963626872#0" to="-155474455#4"/>
    <trip id="truck81" type="truck_truck" depart="386.71" departLane="best" from="155474437#1" to="-964203364#1"/>
    <trip id="truck83" type="truck_truck" depart="396.26" departLane="best" from="-167409214#3" to="155474466#2"/>
    <trip id="truck84" type="truck_truck" depart="401.03" departLane="best" departSpeed="max" from="155474455#0" to="-168379838#0"/>
    <trip id="truck85" type="truck_truck" depart="405.80" departLane="best" from="-168379833#5" to="886841091#0"/>
    <trip id="truck86" type="truck_truck" depart="410.58" departLane="best" departSpeed="max" from="155474552#0" to="58996565#8"/>
    <trip id="truck87" type="truck_truck" depart="415.35" departLane="best" from="161086990#3" to="-155474435#0"/>
    <trip id="truck88" type="truck_truck" depart="420.13" departLane="best" from="-964203364#1" to="58996003#1"/>
    <trip id="truck89" type="truck_truck" depart="424.90" departLane="best" from="58996000#2" to="155474639#1"/>
    <trip id="truck90" type="truck_truck" depart="429.67" departLane="best" from="-155474437#0" to="-155474435#1"/>
    <trip id="truck91" type="truck_truck" depart="434.45" departLane="best" departSpeed="max" from="155474427" to="963626872#1"/>
    <trip id="truck92" type="truck_truck" depart="439.22" departLane="best" from="-368152555#1" to="168653051#2"/>
    <trip id="truck93" type="truck_truck" depart="444.00" departLane="best" from="155474552#12" to="155474437#6"/>
    <trip id="truck94" type="truck_truck" depart="448.77" departLane="best" departSpeed="max" from="161087002#0" to="168379829#9"/>
    <trip id="truck95" type="truck_truck" depart="453.55" departLane="best" departSpeed="max" from="892485463#0" to="161087011#5"/>
    <trip id="truck96" type="truck_truck" depart="458.32" departLane="best" departSpeed="max" from="158699090#0" to="168379833#8"/>
    <trip id="truck97" type="truck_truck" depart="463.09" departLane="best" from="-155474437#1" to="161087011#9"/>
    <trip id="truck98" type="truck_truck" depart="467.87" departLane="best" from="155474639#3" to="58996565#5"/>
    <trip id="truck99" type="truck_truck" depart="472.64" departLane="best" from="-155474632#2" to="902915630"/>
    <trip id="truck100" type="truck_truck" depart="477.42" departLane="best" departSpeed="max" from="-155474441#5" to="-161087002#2"/>
    <trip id="truck101" type="truck_truck" depart="482.19" departLane="best" from="167409212" to="168369538#0"/>
    <trip id="truck102" type="truck_truck" depart="486.96" departLane="best" from="-168379833#15" to="-155474552#0"/>
    <trip id="truck103" type="truck_truck" depart="491.74" departLane="best" from="58996570#0" to="-168379829#9"/>
    <trip id="truck104" type="truck_truck" depart="496.51" departLane="best" from="-167409212" to="168367203#3"/>
    <trip id="truck105" type="truck_truck" depart="501.29" departLane="best" departSpeed="max" from="155474455#0" to="161087011#8"/>
    <trip id="truck106" type="truck_truck" depart="506.06" departLane="best" departSpeed="max" from="158699086#0" to="886841091#5"/>
    <trip id="truck107" type="truck_truck" depart="510.83" departLane="best" departSpeed="max" from="-168379833#17" to="-155474435#1"/>
    <trip id="truck108" type="truck_truck" depart="515.61" departLane="best" departSpeed="max" from="-944535893" to="168379837#2"/>
    <trip id="truck109" type="truck_truck" depart="520.38" departLane="best" from="155474441#0" to="155474516"/>
    <trip id="truck110" type="truck_truck" depart="525.16" departLane="best" departSpeed="max" from="964203364#0" to="964201120"/>
    <trip id="truck111" type="truck_truck" depart="529.93" departLane="best" from="-155474441#1" to="167409214#8"/>
    <trip id="truck112" type="truck_truck" depart="534.71" departLane="best" from="-368152555#1" to="886841091#5"/>
    <trip id="truck113" type="truck_truck" depart="539.48" departLane="best" from="155474425#1" to="-155474636#0"/>
    <trip id="truck114" type="truck_truck" depart="544.25" departLane="best" from="368152559#0" to="168379829#13"/>
    <trip id="truck115" type="truck_truck" depart="549.03" departLane="best" from="-168367188#1" to="964186809"/>
    <trip id="truck116" type="truck_truck" depart="553.80" departLane="best" departSpeed="max" from="168367751" to="-1049112520"/>
    <trip id="truck117" type="truck_truck" depart="558.58" departLane="best" departSpeed="max" from="168367753#0" to="886841092"/>
    <trip id="truck118" type="truck_truck" depart="563.35" departLane="best" from="-155474552#5" to="-155474552#0"/>
    <trip id="truck119" type="truck_truck" depart="568.12" departLane="best" from="-155474520" to="161086997#1"/>
    <trip id="truck120" type="truck_truck" depart="572.90" departLane="best" departSpeed="max" from="-368152560" to="168367191"/>
    <trip id="truck121" type="truck_truck" depart="577.67" departLane="best" departSpeed="max" from="168379829#0" to="-167409214#2"/>
    <trip id="truck122" type="truck_truck" depart="582.45" departLane="best" departSpeed="max" from="168367206#0" to="168379833#15"/>
    <trip id="truck123" type="truck_truck" depart="587.22" departLane="best" departSpeed="max" from="155474636#0" to="886841052#3"/>
    <trip id="truck124" type="truck_truck" depart="592.00" departLane="best" from="58996000#1" to="-155474455#0"/>
    <trip id="truck125" type="truck_truck" depart="596.77" departLane="best" departSpeed="max" from="155474455#0" to="-168379833#8"/>
    <trip id="truck126" type="truck_truck" depart="601.54" departLane="best" from="-1049112518" to="168653046#4"/>
    <trip id="truck127" type="truck_truck" depart="606.32" departLane="best" from="168367206#2" to="-168379833#13"/>
    <trip id="truck128" type="truck_truck" depart="611.09" departLane="best" departSpeed="max" from="168379833#0" to="161086997#0"/>
    <trip id="truck129" type="truck_truck" depart="615.87" departLane="best" from="155474455#3" to="-1050275127#0"/>
    <trip id="truck130" type="truck_truck" depart="620.64" departLane="best" from="155474441#2" to="58996570#6"/>
    <trip id="truck131" type="truck_truck" depart="625.41" departLane="best" departSpeed="max" from="621794208#0" to="58996564#1"/>
    <trip id="truck132" type="truck_truck" depart="630.19" departLane="best" from="-368152559#1" to="161087011#8"/>
    <trip id="truck133" type="truck_truck" depart="634.96" departLane="best" from="-155474573#1" to="155474552#14"/>
    <trip id="truck134" type="truck_truck" depart="639.74" departLane="best" departSpeed="max" from="-902915632" to="823589201#0"/>
    <trip id="truck135" type="truck_truck" depart="644.51" departLane="best" departSpeed="max" from="168379838#0" to="58996565#8"/>
    <trip id="truck136" type="truck_truck" depart="649.29" departLane="best" from="58996570#6" to="-167409214#6"/>
    <trip id="truck137" type="truck_truck" depart="654.06" departLane="best" from="-168379833#5" to="155474466#2"/>
    <trip id="truck138" type="truck_truck" depart="658.83" departLane="best" from="168379837#1" to="58996570#6"/>
    <trip id="truck139" type="truck_truck" depart="663.61" departLane="best" departSpeed="max" from="-155474599" to="886841091#4"/>
    <trip id="truck140" type="truck_truck" depart="668.38" departLane="best" departSpeed="max" from="58996006#0" to="944535893"/>
    <trip id="truck141" type="truck_truck" depart="673.16" departLane="best" from="168663755#0" to="58996570#4"/>
    <trip id="truck142" type="truck_truck" depart="677.93" departLane="best" from="-125222993#1" to="168379833#17"/>
    <trip id="truck143" type="truck_truck" depart="682.70" departLane="best" from="-1049112519#1" to="886841091#5"/>
    <trip id="truck144" type="truck_truck" depart="687.48" departLane="best" from="168663755#0" to="-168379833#2"/>
    <trip id="truck145" type="truck_truck" depart="692.25" departLane="best" from="58996564#0" to="58996565#8"/>
    <trip id="truck146" type="truck_truck" depart="697.03" departLane="best" from="-168379829#8" to="58995994#2"/>
    <trip id="truck147" type="truck_truck" depart="701.80" departLane="best" departSpeed="max" from="168379838#0" to="-168379829#0"/>
    <trip id="truck148" type="truck_truck" depart="706.58" departLane="best" from="-125222993#0" to="-161087013#0"/>
    <trip id="truck149" type="truck_truck" depart="711.35" departLane="best" from="1049111723#1" to="58996566#0"/>
    <trip id="truck150" type="truck_truck" depart="716.12" departLane="best" departSpeed="max" from="892485463#0" to="-168379838#0"/>
    <trip id="truck151" type="truck_truck" depart="720.90" departLane="best" from="168367206#6" to="155474435#3"/>
    <trip id="truck152" type="truck_truck" depart="725.67" departLane="best" from="886841091#0" to="-155474552#0"/>
    <trip id="truck153" type="truck_truck" depart="730.45" departLane="best" departSpeed="max" from="892485463#0" to="-155474645#0"/>
    <trip id="truck154" type="truck_truck" depart="735.22" departLane="best" from="887507333" to="168379833#16"/>
    <trip id="truck155" type="truck_truck" depart="739.99" departLane="best" from="155474521" to="155474441#5"/>
    <trip id="truck156" type="truck_truck" depart="744.77" departLane="best" from="-168379829#12" to="-58996006#0"/>
    <trip id="truck157" type="truck_truck" depart="749.54" departLane="best" from="-167409214#7" to="155474632#0"/>
    <trip id="truck158" type="truck_truck" depart="754.32" departLane="best" departSpeed="max" from="155474435#0" to="161087011#4"/>
    <trip id="truck159" type="truck_truck" depart="759.09" departLane="best" from="-168379833#8" to="168379829#3"/>
    <trip id="truck160" type="truck_truck" depart="763.87" departLane="best" from="-1049111723#1" to="886841091#1"/>
    <trip id="truck161" type="truck_truck" depart="768.64" departLane="best" departSpeed="max" from="158699090#0" to="168379833#1"/>
    <trip id="truck162" type="truck_truck" depart="773.41" departLane="best" departSpeed="max" from="168379833#0" to="168367753#8"/>
    <trip id="truck163" type="truck_truck" depart="778.19" departLane="best" departSpeed="max" from="155474425#0" to="155474437#0"/>
    <trip id="truck164" type="truck_truck" depart="782.96" departLane="best" departSpeed="max" from="168367753#0" to="-948004641#1"/>
    <trip id="truck165" type="truck_truck" depart="787.74" departLane="best" departSpeed="max" from="168379829#0" to="-368152554"/>
    <trip id="truck166" type="truck_truck" depart="792.51" departLane="best" from="155474437#1" to="-368152554"/>
    <trip id="truck167" type="truck_truck" depart="797.28" departLane="best" from="886841091#1" to="168369538#11"/>
    <trip id="truck168" type="truck_truck" depart="802.06" departLane="best" departSpeed="max" from="621794208#0" to="168367203#0"/>
    <trip id="truck169" type="truck_truck" depart="806.83" departLane="best" departSpeed="max" from="-902915630" to="161086990#1"/>
    <trip id="truck170" type="truck_truck" depart="811.61" departLane="best" from="155474455#5" to="161087011#6"/>
    <trip id="truck171" type="truck_truck" depart="816.38" departLane="best" departSpeed="max" from="168367751" to="155474537"/>
    <trip id="truck172" type="truck_truck" depart="821.16" departLane="best" from="155474537" to="168367188#0"/>
    <trip id="truck173" type="truck_truck" depart="825.93" departLane="best" from="155474571#0" to="886841052#0"/>
    <trip id="truck174" type="truck_truck" depart="830.70" departLane="best" departSpeed="max" from="168379838#0" to="-155474639#3"/>
    <trip id="truck175" type="truck_truck" depart="835.48" departLane="best" departSpeed="max" from="-155474441#5" to="155474632#3"/>
    <trip id="truck176" type="truck_truck" depart="840.25" departLane="best" departSpeed="max" from="168367206#0" to="-964203364#0"/>
    <trip id="truck177" type="truck_truck" depart="845.03" departLane="best" from="168367753#12" to="-168379829#0"/>
    <trip id="truck178" type="truck_truck" depart="849.80" departLane="best" from="168379833#2" to="155474552#15"/>
    <trip id="truck179" type="truck_truck" depart="854.57" departLane="best" from="58996000#3" to="-155474437#2"/>
    <trip id="truck180" type="truck_truck" depart="859.35" departLane="best" from="155474441#3" to="168367206#2"/>
    <trip id="truck181" type="truck_truck" depart="864.12" departLane="best" from="-167409214#6" to="168379829#11"/>
    <trip id="truck182" type="truck_truck" depart="868.90" departLane="best" departSpeed="max" from="155474636#0" to="168379829#7"/>
    <trip id="truck183" type="truck_truck" depart="873.67" departLane="best" departSpeed="max" from="168367751" to="-1049112519#0"/>
    <trip id="truck184" type="truck_truck" depart="878.45" departLane="best" from="168379833#10" to="168653046#4"/>
    <trip id="truck185" type="truck_truck" depart="883.22" departLane="best" from="-155474516" to="155474441#0"/>
    <trip id="truck186" type="truck_truck" depart="887.99" departLane="best" from="161087002#0" to="902915630"/>
    <trip id="truck187" type="truck_truck" depart="892.77" departLane="best" departSpeed="max" from="158699086#0" to="-155474427"/>
    <trip id="truck188" type="truck_truck" depart="897.54" departLane="best" from="-168379833#5" to="58996565#2"/>
    <trip id="truck189" type="truck_truck" depart="902.32" departLane="best" from="-155474552#13" to="368152555#1"/>
    <trip id="truck190" type="truck_truck" depart="907.09" departLane="best" departSpeed="max" from="168367753#0" to="158699086#6"/>
    <trip id="truck191" type="truck_truck" depart="911.86" departLane="best" from="58996570#1" to="168367196#4"/>
    <trip id="truck192" type="truck_truck" depart="916.64" departLane="best" departSpeed="max" from="168379829#0" to="155474599"/>
    <trip id="truck193" type="truck_truck" depart="921.41" departLane="best" from="58996570#5" to="-168379833#5"/>
    <trip id="truck194" type="truck_truck" depart="926.19" departLane="best" from="-155474571#1" to="-168379833#11"/>
    <trip id="truck195" type="truck_truck" depart="930.96" departLane="best" from="168379833#3" to="168367750#1"/>
    <trip id="truck196" type="truck_truck" depart="935.73" departLane="best" from="168367203#3" to="-168379833#7"/>
    <trip id="truck197" type="truck_truck" depart="940.51" departLane="best" from="-155474441#4" to="-168379838#0"/>
    <trip id="truck198" type="truck_truck" depart="945.28" departLane="best" departSpeed="max" from="-368152560" to="-58996566#1"/>
    <trip id="truck199" type="truck_truck" depart="950.06" departLane="best" departSpeed="max" from="158699090#0" to="155474552#8"/>
    <trip id="truck200" type="truck_truck" depart="954.83" departLane="best" from="-168379833#13" to="168653046#0"/>
    <trip id="truck201" type="truck_truck" depart="959.61" departLane="best" departSpeed="max" from="168379828#0" to="155474435#5"/>
    <trip id="truck202" type="truck_truck" depart="964.38" departLane="best" from="155474437#5" to="158699090#1"/>
    <trip id="truck203" type="truck_truck" depart="969.15" departLane="best" departSpeed="max" from="155474455#0" to="886841052#2"/>
    <trip id="truck204" type="truck_truck" depart="973.93" departLane="best" from="58996003#0" to="168653046#1"/>
    <trip id="truck205" type="truck_truck" depart="978.70" departLane="best" departSpeed="max" from="155474427" to="-1049112519#0"/>
    <trip id="truck206" type="truck_truck" depart="983.48" departLane="best" from="125222993#2" to="168379837#3"/>
    <trip id="truck207" type="truck_truck" depart="988.25" departLane="best" departSpeed="max" from="155474455#0" to="-168379833#8"/>
    <trip id="truck208" type="truck_truck" depart="993.02" departLane="best" from="161086990#0" to="168367188#1"/>
    <trip id="truck209" type="truck_truck" depart="997.80" departLane="best" from="-168379829#6" to="-168367751"/>
    <trip id="truck210" type="truck_truck" depart="1002.57" departLane="best" from="155474516" to="125222993#4"/>
    <trip id="truck211" type="truck_truck" depart="1007.35" departLane="best" departSpeed="max" from="1050275127#0" to="168369538#2"/>
    <trip id="truck212" type="truck_truck" depart="1012.12" departLane="best" from="-155474437#2" to="-155474639#0"/>
    <trip id="truck213" type="truck_truck" depart="1016.90" departLane="best" from="155474552#7" to="155474552#14"/>
    <trip id="truck214" type="truck_truck" depart="1021.67" departLane="best" from="168367203#0" to="125222993#3"/>
    <trip id="truck215" type="truck_truck" depart="1026.44" departLane="best" from="155474435#4" to="161087011#0"/>
    <trip id="truck216" type="truck_truck" depart="1031.22" departLane="best" from="-125222993#3" to="168367752#0"/>
    <trip id="truck217" type="truck_truck" depart="1035.99" departLane="best" from="-155474552#6" to="155474521"/>
    <trip id="truck218" type="truck_truck" depart="1040.77" departLane="best" from="-155474435#5" to="125222993#6"/>
    <trip id="truck219" type="truck_truck" depart="1045.54" departLane="best" departSpeed="max" from="-168379829#13" to="-944524146"/>
    <trip id="truck220" type="truck_truck" depart="1050.31" departLane="best" from="168379833#2" to="125222993#6"/>
    <trip id="truck221" type="truck_truck" depart="1055.09" departLane="best" from="-168379833#11" to="58996000#6"/>
    <trip id="truck222" type="truck_truck" depart="1059.86" departLane="best" from="-168379833#7" to="-155474441#2"/>
    <trip id="truck223" type="truck_truck" depart="1064.64" departLane="best" departSpeed="max" from="-122119743#4" to="158699086#7"/>
    <trip id="truck224" type="truck_truck" depart="1069.41" departLane="best" from="964203364#1" to="1050275127#1"/>
    <trip id="truck225" type="truck_truck" depart="1074.19" departLane="best" departSpeed="max" from="168367751" to="168653051#2"/>
    <trip id="truck226" type="truck_truck" depart="1078.96" departLane="best" departSpeed="max" from="168367751" to="168379837#4"/>
    <trip id="truck227" type="truck_truck" depart="1083.73" departLane="best" departSpeed="max" from="886841093#0" to="-161087013#1"/>
    <trip id="truck228" type="truck_truck" depart="1088.51" departLane="best" departSpeed="max" from="-122119743#4" to="-155474632#3"/>
    <trip id="truck229" type="truck_truck" depart="1093.28" departLane="best" departSpeed="max" from="-155474552#15" to="168367753#7"/>
    <trip id="truck230" type="truck_truck" depart="1098.06" departLane="best" from="161087002#1" to="-168367751"/>