<?xml version="1.0" encoding="UTF-8"?>

<!-- generated on 2023-10-10 16:02:55.262782 by osmWebWizard.py UNKNOWN
<configuration>
    <net-file value="/home/diegocdts/Sumo/_manhattan/osm.net.xml.gz"/>
    <output-trip-file value="/home/diegocdts/Sumo/_manhattan/osm.passenger.trips.xml"/>
    <route-file value="/home/diegocdts/Sumo/_manhattan/osm.passenger.rou.xml"/>
    <prefix value="veh"/>
    <trip-attributes value="departLane=&quot;best&quot;"/>
    <fringe-start-attributes value="departSpeed=&quot;max&quot;"/>
    <vehicle-class value="passenger"/>
    <lanes value="True"/>
    <fringe-factor value="5"/>
    <allow-fringe.min-length value="1000.0"/>
    <via-edge-types value="highway.motorway,highway.motorway_link,highway.trunk_link,highway.primary_link,highway.secondary_link,highway.tertiary_link"/>
    <min-distance value="300.0"/>
    <min-distance.fringe value="10.0"/>
    <remove-loops value="True"/>
    <validate value="True"/>
    <end value="900.0"/>
    <insertion-density value="24.0"/>
</configuration>
-->

<!-- generated on 2023-10-10 16:02:55 by Eclipse SUMO duarouter Version 1.18.0
<configuration xmlns:xsi="http://www.w3.org/2001/XMLSchema-instance" xsi:noNamespaceSchemaLocation="http://sumo.dlr.de/xsd/duarouterConfiguration.xsd">

    <input>
        <net-file value="/home/diegocdts/Sumo/_manhattan/osm.net.xml.gz"/>
        <route-files value="/home/diegocdts/Sumo/_manhattan/osm.passenger.trips.xml"/>
    </input>

    <output>
        <output-file value="/home/diegocdts/Sumo/_manhattan/osm.passenger.trips.xml.tmp"/>
        <alternatives-output value="NUL"/>
        <write-trips value="true"/>
    </output>

    <processing>
        <remove-loops value="true"/>
    </processing>

    <time>
        <begin value="0.0"/>
        <end value="900.0"/>
    </time>

    <report>
        <no-warnings value="true"/>
        <ignore-errors value="true"/>
        <no-step-log value="true"/>
    </report>

</configuration>
-->

<routes xmlns:xsi="http://www.w3.org/2001/XMLSchema-instance" xsi:noNamespaceSchemaLocation="http://sumo.dlr.de/xsd/routes_file.xsd">
    <vType id="veh_passenger" vClass="passenger"/>
    <trip id="veh0" type="veh_passenger" depart="0.00" departLane="best" from="46522008#2" to="-511699183#0"/>
    <trip id="veh1" type="veh_passenger" depart="6.65" departLane="best" from="167922071#1" to="1117867029#2"/>
    <trip id="veh2" type="veh_passenger" depart="13.30" departLane="best" from="542257430#1" to="464516471#4"/>
    <trip id="veh3" type="veh_passenger" depart="19.95" departLane="best" departSpeed="max" from="569345540#0" to="1021065071#1"/>
    <trip id="veh4" type="veh_passenger" depart="26.60" departLane="best" departSpeed="max" from="226041027#0" to="-511699183#0"/>
    <trip id="veh7" type="veh_passenger" depart="46.54" departLane="best" departSpeed="max" from="505317789#0" to="452322756#1"/>
    <trip id="veh9" type="veh_passenger" depart="59.84" departLane="best" departSpeed="max" from="5670124#0" to="-167922072#1"/>
    <trip id="veh10" type="veh_passenger" depart="66.49" departLane="best" from="803047267#1" to="167922071#1"/>
    <trip id="veh11" type="veh_passenger" depart="73.14" departLane="best" departSpeed="max" from="5672464#0" to="464516471#13"/>
    <trip id="veh12" type="veh_passenger" depart="79.79" departLane="best" departSpeed="max" from="5670124#0" to="505317783#1"/>
    <trip id="veh14" type="veh_passenger" depart="93.08" departLane="best" from="195743344#1" to="452322756#3"/>
    <trip id="veh15" type="veh_passenger" depart="99.73" departLane="best" departSpeed="max" from="5672036#0" to="464516471#16"/>
    <trip id="veh16" type="veh_passenger" depart="106.38" departLane="best" from="5673323#4" to="464515890#1"/>
    <trip id="veh17" type="veh_passenger" depart="113.03" departLane="best" from="46522008#1" to="194926846#1"/>
    <trip id="veh20" type="veh_passenger" depart="132.98" departLane="best" departSpeed="max" from="505317789#0" to="464516471#13"/>
    <trip id="veh21" type="veh_passenger" depart="139.63" departLane="best" from="1117867038#1" to="505317783#1"/>
    <trip id="veh22" type="veh_passenger" depart="146.27" departLane="best" from="1070126889" to="194926851#1"/>
    <trip id="veh23" type="veh_passenger" depart="152.92" departLane="best" departSpeed="max" from="972926362#0" to="464516471#18"/>
    <trip id="veh24" type="veh_passenger" depart="159.57" departLane="best" from="448686048#0" to="464516471#8"/>
    <trip id="veh25" type="veh_passenger" depart="166.22" departLane="best" departSpeed="max" from="5672464#0" to="542258061#2"/>
    <trip id="veh26" type="veh_passenger" depart="172.87" departLane="best" from="125479721#1" to="-511699183#0"/>
    <trip id="veh28" type="veh_passenger" depart="186.17" departLane="best" departSpeed="max" from="569345540#0" to="127693103#4"/>
    <trip id="veh29" type="veh_passenger" depart="192.82" departLane="best" from="127693103#4" to="1198594026#1"/>
    <trip id="veh30" type="veh_passenger" depart="199.47" departLane="best" from="464516471#12" to="626739791"/>
    <trip id="veh33" type="veh_passenger" depart="219.41" departLane="best" from="1049844343#1" to="464516471#18"/>
    <trip id="veh34" type="veh_passenger" depart="226.06" departLane="best" departSpeed="max" from="5670124#0" to="226041025#2"/>
    <trip id="veh35" type="veh_passenger" depart="232.71" departLane="best" departSpeed="max" from="-542259076#5" to="194926851#1"/>
    <trip id="veh37" type="veh_passenger" depart="246.01" departLane="best" departSpeed="max" from="846142552#0" to="569345543#1"/>
    <trip id="veh38" type="veh_passenger" depart="252.66" departLane="best" from="-167922076#1" to="505317783#1"/>
    <trip id="veh39" type="veh_passenger" depart="259.31" departLane="best" departSpeed="max" from="505317789#0" to="448686048#0"/>
    <trip id="veh40" type="veh_passenger" depart="265.95" departLane="best" from="167922070#1" to="464516471#18"/>
    <trip id="veh41" type="veh_passenger" depart="272.60" departLane="best" departSpeed="max" from="226041028#0" to="968513231#1"/>
    <trip id="veh42" type="veh_passenger" depart="279.25" departLane="best" departSpeed="max" from="569345540#0" to="1198594029#0"/>
    <trip id="veh43" type="veh_passenger" depart="285.90" departLane="best" from="397795464#1" to="1049920718#1"/>
    <trip id="veh44" type="veh_passenger" depart="292.55" departLane="best" from="167922074#1" to="464516471#18"/>
    <trip id="veh45" type="veh_passenger" depart="299.20" departLane="best" from="464516471#16" to="1049920718#1"/>
    <trip id="veh46" type="veh_passenger" depart="305.85" departLane="best" from="542258337#3" to="448686048#0"/>
    <trip id="veh47" type="veh_passenger" depart="312.50" departLane="best" from="-542259076#2" to="448686048#0"/>
    <trip id="veh52" type="veh_passenger" depart="345.74" departLane="best" from="1021065071#1" to="420494981#2"/>
    <trip id="veh54" type="veh_passenger" depart="359.04" departLane="best" departSpeed="max" from="36806906#0" to="452322756#3"/>
    <trip id="veh57" type="veh_passenger" depart="378.99" departLane="best" from="1198594027#2" to="127693103#4"/>
    <trip id="veh58" type="veh_passenger" depart="385.63" departLane="best" departSpeed="max" from="972926362#0" to="464516471#18"/>
    <trip id="veh60" type="veh_passenger" depart="398.93" departLane="best" from="1049845754#0" to="1117867038#1"/>
    <trip id="veh61" type="veh_passenger" depart="405.58" departLane="best" departSpeed="max" from="194926854#0" to="464516471#1"/>
    <trip id="veh63" type="veh_passenger" depart="418.88" departLane="best" departSpeed="max" from="-542259076#5" to="464516471#18"/>
    <trip id="veh64" type="veh_passenger" depart="425.53" departLane="best" from="125479721#1" to="682360554#1"/>
    <trip id="veh65" type="veh_passenger" depart="432.18" departLane="best" from="5673323#3" to="542259076#1"/>
    <trip id="veh66" type="veh_passenger" depart="438.82" departLane="best" from="125480075#1" to="464516471#18"/>
    <trip id="veh68" type="veh_passenger" depart="452.12" departLane="best" from="569345546#2" to="464515890#1"/>
    <trip id="veh69" type="veh_passenger" depart="458.77" departLane="best" departSpeed="max" from="36806906#0" to="542258337#3"/>
    <trip id="veh71" type="veh_passenger" depart="472.07" departLane="best" departSpeed="max" from="226041027#0" to="397795463#1"/>
    <trip id="veh72" type="veh_passenger" depart="478.72" departLane="best" from="525729008#1" to="464516471#4"/>
    <trip id="veh73" type="veh_passenger" depart="485.37" departLane="best" from="5673323#4" to="1198594026#1"/>
    <trip id="veh74" type="veh_passenger" depart="492.02" departLane="best" from="1198594026#1" to="226041029#1"/>
    <trip id="veh75" type="veh_passenger" depart="498.66" departLane="best" from="127693103#1" to="846142553#2"/>
    <trip id="veh76" type="veh_passenger" depart="505.31" departLane="best" departSpeed="max" from="226041028#0" to="569345543#1"/>
    <trip id="veh77" type="veh_passenger" depart="511.96" departLane="best" departSpeed="max" from="846142552#0" to="846142553#3"/>
    <trip id="veh78" type="veh_passenger" depart="518.61" departLane="best" departSpeed="max" from="5672464#0" to="1049920718#1"/>
    <trip id="veh80" type="veh_passenger" depart="531.91" departLane="best" from="195743344#1" to="968513231#1"/>
    <trip id="veh81" type="veh_passenger" depart="538.56" departLane="best" from="127693103#4" to="542258337#3"/>
    <trip id="veh82" type="veh_passenger" depart="545.21" departLane="best" departSpeed="max" from="226041028#0" to="226041025#2"/>
    <trip id="veh83" type="veh_passenger" depart="551.86" departLane="best" from="803047267#1" to="968513231#1"/>
    <trip id="veh84" type="veh_passenger" depart="558.50" departLane="best" from="448686048#0" to="483360105#1"/>
    <trip id="veh85" type="veh_passenger" depart="565.15" departLane="best" from="1051745205#0" to="125480075#1"/>
    <trip id="veh86" type="veh_passenger" depart="571.80" departLane="best" departSpeed="max" from="846142552#0" to="464516471#1"/>
    <trip id="veh88" type="veh_passenger" depart="585.10" departLane="best" departSpeed="max" from="-542259076#5" to="464516471#1"/>
    <trip id="veh89" type="veh_passenger" depart="591.75" departLane="best" from="1070126888#3" to="968513231#1"/>
    <trip id="veh90" type="veh_passenger" depart="598.40" departLane="best" from="1021065071#1" to="1049920718#1"/>
    <trip id="veh91" type="veh_passenger" depart="605.05" departLane="best" from="125479721#1" to="1198594026#1"/>
    <trip id="veh92" type="veh_passenger" depart="611.70" departLane="best" departSpeed="max" from="569345540#0" to="1198594026#1"/>
    <trip id="veh94" type="veh_passenger" depart="624.99" departLane="best" departSpeed="max" from="-542259076#5" to="35027229#1"/>
    <trip id="veh95" type="veh_passenger" depart="631.64" departLane="best" departSpeed="max" from="972926362#0" to="968513231#1"/>
    <trip id="veh97" type="veh_passenger" depart="644.94" departLane="best" from="127693103#4" to="846142553#6"/>
    <trip id="veh98" type="veh_passenger" depart="651.59" departLane="best" departSpeed="max" from="569345540#0" to="569345546#1"/>
    <trip id="veh99" type="veh_passenger" depart="658.24" departLane="best" from="464516471#4" to="968513231#1"/>
    <trip id="veh100" type="veh_passenger" depart="664.89" departLane="best" departSpeed="max" from="505317789#0" to="-167922072#1"/>
    <trip id="veh101" type="veh_passenger" depart="671.54" departLane="best" departSpeed="max" from="5670124#0" to="125480075#1"/>
    <trip id="veh103" type="veh_passenger" depart="684.83" departLane="best" from="1049844343#1" to="452322756#3"/>
    <trip id="veh104" type="veh_passenger" depart="691.48" departLane="best" from="167922070#1" to="464516471#13"/>
    <trip id="veh105" type="veh_passenger" depart="698.13" departLane="best" from="511699183#2" to="1051745205#0"/>
    <trip id="veh107" type="veh_passenger" depart="711.43" departLane="best" departSpeed="max" from="5672464#0" to="1021068251#1"/>
    <trip id="veh108" type="veh_passenger" depart="718.08" departLane="best" from="1136952921#0" to="542257982#1"/>
    <trip id="veh109" type="veh_passenger" depart="724.73" departLane="best" from="542257430#1" to="452322756#3"/>
    <trip id="veh110" type="veh_passenger" depart="731.37" departLane="best" departSpeed="max" from="226041027#0" to="-167922072#1"/>
    <trip id="veh111" type="veh_passenger" depart="738.02" departLane="best" departSpeed="max" from="-542259076#5" to="569345546#2"/>
    <trip id="veh112" type="veh_passenger" depart="744.67" departLane="best" from="569345540#3" to="452322756#2"/>
    <trip id="veh113" type="veh_passenger" depart="751.32" departLane="best" departSpeed="max" from="5672036#0" to="464516471#1"/>
    <trip id="veh115" type="veh_passenger" depart="764.62" departLane="best" departSpeed="max" from="5670124#0" to="569345543#1"/>
    <trip id="veh117" type="veh_passenger" depart="777.92" departLane="best" from="127693103#1" to="1027189508"/>
    <trip id="veh118" type="veh_passenger" depart="784.57" departLane="best" departSpeed="max" from="5670114#0" to="569345546#2"/>
    <trip id="veh119" type="veh_passenger" depart="791.21" departLane="best" from="226041025#2" to="464516471#18"/>
    <trip id="veh120" type="veh_passenger" depart="797.86" departLane="best" from="5673323#5" to="968513231#1"/>
    <trip id="veh121" type="veh_passenger" depart="804.51" departLane="best" departSpeed="max" from="5670124#0" to="569345546#1"/>
    <trip id="veh122" type="veh_passenger" depart="811.16" departLane="best" departSpeed="max" from="194926854#0" to="846142553#5"/>
    <trip id="veh123" type="veh_passenger" depart="817.81" departLane="best" departSpeed="max" from="5670124#0" to="569345544#1"/>
    <trip id="veh124" type="veh_passenger" depart="824.46" departLane="best" departSpeed="max" from="5670124#0" to="1198594029#0"/>
    <trip id="veh125" type="veh_passenger" depart="831.11" departLane="best" departSpeed="max" from="5670114#0" to="569345544#1"/>
    <trip id="veh126" type="veh_passenger" depart="837.76" departLane="best" from="1207834766#1" to="542259076#3"/>
    <trip id="veh127" type="veh_passenger" depart="844.41" departLane="best" departSpeed="max" from="226041028#0" to="127693103#1"/>
    <trip id="veh128" type="veh_passenger" depart="851.05" departLane="best" departSpeed="max" from="5670124#0" to="1117867038#2"/>
    <trip id="veh130" type="veh_passenger" depart="864.35" departLane="best" departSpeed="max" from="194926854#0" to="569345544#1"/>
    <trip id="veh131" type="veh_passenger" depart="871.00" departLane="best" departSpeed="max" from="846142552#0" to="1207834766#1"/>
    <trip id="veh132" type="veh_passenger" depart="877.65" departLane="best" from="483360105#1" to="195743344#1"/>
    <trip id="veh133" type="veh_passenger" depart="884.30" departLane="best" from="846142553#4" to="448686048#0"/>
    <trip id="veh134" type="veh_passenger" depart="890.95" departLane="best" departSpeed="max" from="846142552#0" to="1049920718#1"/>
    <trip id="veh135" type="veh_passenger" depart="897.60" departLane="best" from="-525729008#2" to="127693103#4"/>
</routes>
