<?xml version="1.0" encoding="UTF-8"?>

<!-- generated on 2023-10-20 16:52:12.813958 by osmWebWizard.py UNKNOWN
<configuration>
    <net-file value="/home/diegocdts/Sumo/_times/osm.net.xml.gz"/>
    <output-trip-file value="/home/diegocdts/Sumo/_times/osm.passenger.trips.xml"/>
    <route-file value="/home/diegocdts/Sumo/_times/osm.passenger.rou.xml"/>
    <prefix value="veh"/>
    <trip-attributes value="departLane=&quot;best&quot;"/>
    <fringe-start-attributes value="departSpeed=&quot;max&quot;"/>
    <vehicle-class value="passenger"/>
    <lanes value="True"/>
    <fringe-factor value="15"/>
    <allow-fringe.min-length value="1000.0"/>
    <via-edge-types value="highway.motorway,highway.motorway_link,highway.trunk_link,highway.primary_link,highway.secondary_link,highway.tertiary_link"/>
    <min-distance value="300.0"/>
    <min-distance.fringe value="10.0"/>
    <remove-loops value="True"/>
    <validate value="True"/>
    <end value="900.0"/>
    <insertion-density value="36.0"/>
</configuration>
-->

<!-- generated on 2023-10-20 16:52:12 by Eclipse SUMO duarouter Version 1.18.0
<configuration xmlns:xsi="http://www.w3.org/2001/XMLSchema-instance" xsi:noNamespaceSchemaLocation="http://sumo.dlr.de/xsd/duarouterConfiguration.xsd">

    <input>
        <net-file value="/home/diegocdts/Sumo/_times/osm.net.xml.gz"/>
        <route-files value="/home/diegocdts/Sumo/_times/osm.passenger.trips.xml"/>
    </input>

    <output>
        <output-file value="/home/diegocdts/Sumo/_times/osm.passenger.trips.xml.tmp"/>
        <alternatives-output value="NUL"/>
        <write-trips value="true"/>
    </output>

    <processing>
        <remove-loops value="true"/>
    </processing>

    <time>
        <begin value="0.0"/>
        <end value="900.0"/>
    </time>

    <report>
        <no-warnings value="true"/>
        <ignore-errors value="true"/>
        <no-step-log value="true"/>
    </report>

</configuration>
-->

<routes xmlns:xsi="http://www.w3.org/2001/XMLSchema-instance" xsi:noNamespaceSchemaLocation="http://sumo.dlr.de/xsd/routes_file.xsd">
    <vType id="veh_passenger" vClass="passenger"/>
    <trip id="veh1" type="veh_passenger" depart="0.79" departLane="best" from="195743182#6" to="1201651437#3"/>
    <trip id="veh2" type="veh_passenger" depart="1.58" departLane="best" from="5670600#0" to="46443656#11"/>
    <trip id="veh3" type="veh_passenger" depart="2.36" departLane="best" departSpeed="max" from="68674961#0" to="1025734022#0"/>
    <trip id="veh5" type="veh_passenger" depart="3.94" departLane="best" departSpeed="max" from="-384826723#1" to="1198594030#0"/>
    <trip id="veh6" type="veh_passenger" depart="4.73" departLane="best" from="483236728#0" to="458166897#18"/>
    <trip id="veh7" type="veh_passenger" depart="5.52" departLane="best" from="1207834767#0" to="458177129"/>
    <trip id="veh8" type="veh_passenger" depart="6.31" departLane="best" from="569345537#4" to="-167922077#2"/>
    <trip id="veh10" type="veh_passenger" depart="7.88" departLane="best" departSpeed="max" from="767683113#0" to="226041020#0"/>
    <trip id="veh11" type="veh_passenger" depart="8.67" departLane="best" from="1049841322#3" to="1027189510#0"/>
    <trip id="veh12" type="veh_passenger" depart="9.46" departLane="best" from="671212509#0" to="458180184#0"/>
    <trip id="veh13" type="veh_passenger" depart="10.25" departLane="best" from="569345537#2" to="496990647#6"/>
    <trip id="veh14" type="veh_passenger" depart="11.04" departLane="best" departSpeed="max" from="458180192#0" to="872052106"/>
    <trip id="veh15" type="veh_passenger" depart="11.82" departLane="best" from="846142553#5" to="458166897#18"/>
    <trip id="veh16" type="veh_passenger" depart="12.61" departLane="best" departSpeed="max" from="618990022#0" to="458180197#0"/>
    <trip id="veh17" type="veh_passenger" depart="13.40" departLane="best" departSpeed="max" from="68668519" to="458177129"/>
    <trip id="veh18" type="veh_passenger" depart="14.19" departLane="best" from="511699183#0" to="988980354#1"/>
    <trip id="veh19" type="veh_passenger" depart="14.98" departLane="best" from="127693103#0" to="195743343#3"/>
    <trip id="veh20" type="veh_passenger" depart="15.76" departLane="best" departSpeed="max" from="1031879418#0" to="125480075#0"/>
    <trip id="veh21" type="veh_passenger" depart="16.55" departLane="best" from="1049920715#0" to="195743336#6"/>
    <trip id="veh22" type="veh_passenger" depart="17.34" departLane="best" departSpeed="max" from="46520834" to="384649120#5"/>
    <trip id="veh23" type="veh_passenger" depart="18.13" departLane="best" from="384178816#3" to="1201651435#2"/>
    <trip id="veh25" type="veh_passenger" depart="19.71" departLane="best" departSpeed="max" from="46583189#0" to="458180187#4"/>
    <trip id="veh26" type="veh_passenger" depart="20.49" departLane="best" departSpeed="max" from="1150705656#0" to="496990647#6"/>
    <trip id="veh27" type="veh_passenger" depart="21.28" departLane="best" from="1150636501#0" to="415849235#2"/>
    <trip id="veh28" type="veh_passenger" depart="22.07" departLane="best" departSpeed="max" from="988977545#0" to="460585328#22"/>
    <trip id="veh29" type="veh_passenger" depart="22.86" departLane="best" departSpeed="max" from="460585328#0" to="464515259#9"/>
    <trip id="veh30" type="veh_passenger" depart="23.65" departLane="best" from="619454130#0" to="511924978#1"/>
    <trip id="veh32" type="veh_passenger" depart="25.22" departLane="best" from="196116976#9" to="195743182#3"/>
    <trip id="veh33" type="veh_passenger" depart="26.01" departLane="best" departSpeed="max" from="68674961#0" to="226041000#0"/>
    <trip id="veh34" type="veh_passenger" depart="26.80" departLane="best" from="496983397#0" to="420356171#3"/>
    <trip id="veh35" type="veh_passenger" depart="27.59" departLane="best" departSpeed="max" from="729972919#0" to="420906752"/>
    <trip id="veh36" type="veh_passenger" depart="28.38" departLane="best" from="125480075#0" to="194920158#9"/>
    <trip id="veh37" type="veh_passenger" depart="29.17" departLane="best" departSpeed="max" from="460585328#0" to="194926854#0"/>
    <trip id="veh38" type="veh_passenger" depart="29.95" departLane="best" from="464516471#0" to="22916381#0"/>
    <trip id="veh39" type="veh_passenger" depart="30.74" departLane="best" from="420901690#2" to="1201651435#2"/>
    <trip id="veh40" type="veh_passenger" depart="31.53" departLane="best" from="988984235#0" to="458166892#3"/>
    <trip id="veh41" type="veh_passenger" depart="32.32" departLane="best" from="569345515#0" to="1021047632#0"/>
    <trip id="veh42" type="veh_passenger" depart="33.11" departLane="best" from="1051745205#0" to="460585328#22"/>
    <trip id="veh43" type="veh_passenger" depart="33.89" departLane="best" departSpeed="max" from="569345508#0" to="420901679#0"/>
    <trip id="veh44" type="veh_passenger" depart="34.68" departLane="best" from="1027181005#0" to="415849235#2"/>
    <trip id="veh45" type="veh_passenger" depart="35.47" departLane="best" from="-988980354#1" to="458166897#12"/>
    <trip id="veh46" type="veh_passenger" depart="36.26" departLane="best" from="858965315#0" to="5671709#0"/>
    <trip id="veh47" type="veh_passenger" depart="37.05" departLane="best" departSpeed="max" from="-1087048475#1" to="496983397#0"/>
    <trip id="veh48" type="veh_passenger" depart="37.84" departLane="best" from="496990647#6" to="458166897#18"/>
    <trip id="veh49" type="veh_passenger" depart="38.62" departLane="best" from="194926851#2" to="460585328#22"/>
    <trip id="veh50" type="veh_passenger" depart="39.41" departLane="best" from="1051750426#0" to="420901679#0"/>
    <trip id="veh51" type="veh_passenger" depart="40.20" departLane="best" from="44165030#0" to="812949647#3"/>
    <trip id="veh52" type="veh_passenger" depart="40.99" departLane="best" departSpeed="max" from="68674961#0" to="194926854#0"/>
    <trip id="veh53" type="veh_passenger" depart="41.78" departLane="best" departSpeed="max" from="458180186#0" to="1136391283#3"/>
    <trip id="veh54" type="veh_passenger" depart="42.57" departLane="best" from="195743343#0" to="460585328#22"/>
    <trip id="veh56" type="veh_passenger" depart="44.14" departLane="best" departSpeed="max" from="5671315#0" to="458166897#18"/>
    <trip id="veh57" type="veh_passenger" depart="44.93" departLane="best" from="988984235#0" to="458166897#15"/>
    <trip id="veh58" type="veh_passenger" depart="45.72" departLane="best" departSpeed="max" from="-1087048475#1" to="226041005#3"/>
    <trip id="veh59" type="veh_passenger" depart="46.51" departLane="best" departSpeed="max" from="36271338#7" to="700951339#0"/>
    <trip id="veh60" type="veh_passenger" depart="47.29" departLane="best" departSpeed="max" from="68674961#0" to="5670139#0"/>
    <trip id="veh61" type="veh_passenger" depart="48.08" departLane="best" departSpeed="max" from="196116976#0" to="1023238044"/>
    <trip id="veh62" type="veh_passenger" depart="48.87" departLane="best" departSpeed="max" from="68674961#0" to="771759767"/>
    <trip id="veh63" type="veh_passenger" depart="49.66" departLane="best" from="1036712190" to="438384693#3"/>
    <trip id="veh64" type="veh_passenger" depart="50.45" departLane="best" from="1027189510#0" to="511699184#0"/>
    <trip id="veh65" type="veh_passenger" depart="51.24" departLane="best" departSpeed="max" from="5671315#0" to="-195743208#6"/>
    <trip id="veh66" type="veh_passenger" depart="52.02" departLane="best" from="458166897#6" to="458166897#18"/>
    <trip id="veh67" type="veh_passenger" depart="52.81" departLane="best" from="125480075#0" to="1049841322#0"/>
    <trip id="veh68" type="veh_passenger" depart="53.60" departLane="best" departSpeed="max" from="458180192#0" to="496990647#6"/>
    <trip id="veh69" type="veh_passenger" depart="54.39" departLane="best" departSpeed="max" from="1201651437#0" to="196117039#0"/>
    <trip id="veh70" type="veh_passenger" depart="55.18" departLane="best" from="988977545#11" to="46334593#0"/>
    <trip id="veh71" type="veh_passenger" depart="55.97" departLane="best" from="438384693#3" to="458166893#4"/>
    <trip id="veh72" type="veh_passenger" depart="56.75" departLane="best" from="1087744935#0" to="1207834765"/>
    <trip id="veh73" type="veh_passenger" depart="57.54" departLane="best" from="226041032#0" to="458177129"/>
    <trip id="veh74" type="veh_passenger" depart="58.33" departLane="best" from="127693103#3" to="1201651435#2"/>
    <trip id="veh75" type="veh_passenger" depart="59.12" departLane="best" from="226041030" to="460585328#22"/>
    <trip id="veh76" type="veh_passenger" depart="59.91" departLane="best" from="127693103#0" to="618990022#20"/>
    <trip id="veh77" type="veh_passenger" depart="60.70" departLane="best" departSpeed="max" from="68668519" to="1025734022#0"/>
    <trip id="veh78" type="veh_passenger" depart="61.48" departLane="best" departSpeed="max" from="1201651437#0" to="1061623142#0"/>
    <trip id="veh79" type="veh_passenger" depart="62.27" departLane="best" from="458166897#3" to="511924978#1"/>
    <trip id="veh80" type="veh_passenger" depart="63.06" departLane="best" from="569345537#2" to="1150636500#0"/>
    <trip id="veh81" type="veh_passenger" depart="63.85" departLane="best" from="1049879867#0" to="420901679#0"/>
    <trip id="veh82" type="veh_passenger" depart="64.64" departLane="best" from="420906753" to="420906752"/>
    <trip id="veh83" type="veh_passenger" depart="65.42" departLane="best" from="5670124" to="46443656#11"/>
    <trip id="veh85" type="veh_passenger" depart="67.00" departLane="best" from="420901690#3" to="226041022#0"/>
    <trip id="veh86" type="veh_passenger" depart="67.79" departLane="best" departSpeed="max" from="68668519" to="194926847#0"/>
    <trip id="veh87" type="veh_passenger" depart="68.58" departLane="best" from="420906743#0" to="195743336#6"/>
    <trip id="veh88" type="veh_passenger" depart="69.37" departLane="best" departSpeed="max" from="194920158#0" to="693345069#0"/>
    <trip id="veh89" type="veh_passenger" depart="70.15" departLane="best" from="438385431#6" to="5671709#0"/>
    <trip id="veh90" type="veh_passenger" depart="70.94" departLane="best" departSpeed="max" from="460585328#0" to="1021068251#0"/>
    <trip id="veh91" type="veh_passenger" depart="71.73" departLane="best" from="989791208#0" to="5670139#0"/>
    <trip id="veh92" type="veh_passenger" depart="72.52" departLane="best" from="846142553#3" to="693345069#0"/>
    <trip id="veh93" type="veh_passenger" depart="73.31" departLane="best" from="682360554#0" to="1124078896#0"/>
    <trip id="veh94" type="veh_passenger" depart="74.10" departLane="best" from="458180183#0" to="1201651435#2"/>
    <trip id="veh95" type="veh_passenger" depart="74.88" departLane="best" from="420901690#2" to="1025734018#0"/>
    <trip id="veh96" type="veh_passenger" depart="75.67" departLane="best" from="397795463#0" to="968513229#0"/>
    <trip id="veh97" type="veh_passenger" depart="76.46" departLane="best" from="194926846#1" to="511924978#1"/>
    <trip id="veh98" type="veh_passenger" depart="77.25" departLane="best" from="44165033#1" to="420901679#0"/>
    <trip id="veh100" type="veh_passenger" depart="78.82" departLane="best" departSpeed="max" from="460585328#0" to="492489884#0"/>
    <trip id="veh101" type="veh_passenger" depart="79.61" departLane="best" from="194920158#11" to="195743343#3"/>
    <trip id="veh102" type="veh_passenger" depart="80.40" departLane="best" from="846142553#2" to="458177129"/>
    <trip id="veh103" type="veh_passenger" depart="81.19" departLane="best" from="458180196" to="505317783#0"/>
    <trip id="veh104" type="veh_passenger" depart="81.98" departLane="best" from="1025734018#0" to="458177129"/>
    <trip id="veh105" type="veh_passenger" depart="82.77" departLane="best" departSpeed="max" from="458180187#0" to="5671129#0"/>
    <trip id="veh106" type="veh_passenger" depart="83.55" departLane="best" from="1136460181#0" to="812949647#3"/>
    <trip id="veh107" type="veh_passenger" depart="84.34" departLane="best" departSpeed="max" from="1031879418#0" to="1136460181#0"/>
    <trip id="veh108" type="veh_passenger" depart="85.13" departLane="best" from="464543615#0" to="46443656#11"/>
    <trip id="veh109" type="veh_passenger" depart="85.92" departLane="best" from="167922074#0" to="1049920718#0"/>
    <trip id="veh110" type="veh_passenger" depart="86.71" departLane="best" departSpeed="max" from="68674961#0" to="194920158#9"/>
    <trip id="veh111" type="veh_passenger" depart="87.50" departLane="best" from="464543614#0" to="458180197#0"/>
    <trip id="veh112" type="veh_passenger" depart="88.28" departLane="best" from="420905130#1" to="458177129"/>
    <trip id="veh113" type="veh_passenger" depart="89.07" departLane="best" from="458180187#4" to="729972918#0"/>
    <trip id="veh114" type="veh_passenger" depart="89.86" departLane="best" departSpeed="max" from="1201651437#0" to="483360105#0"/>
    <trip id="veh115" type="veh_passenger" depart="90.65" departLane="best" departSpeed="max" from="167922077#0" to="420356171#3"/>
    <trip id="veh116" type="veh_passenger" depart="91.44" departLane="best" departSpeed="max" from="496989355#0" to="195743343#3"/>
    <trip id="veh117" type="veh_passenger" depart="92.23" departLane="best" from="196117039#0" to="511699175#0"/>
    <trip id="veh118" type="veh_passenger" depart="93.01" departLane="best" departSpeed="max" from="1031879418#0" to="420906752"/>
    <trip id="veh119" type="veh_passenger" depart="93.80" departLane="best" from="989791207#0" to="988980354#1"/>
    <trip id="veh120" type="veh_passenger" depart="94.59" departLane="best" departSpeed="max" from="1031879418#0" to="1201651435#2"/>
    <trip id="veh121" type="veh_passenger" depart="95.38" departLane="best" from="194926846#1" to="729972918#0"/>
    <trip id="veh122" type="veh_passenger" depart="96.17" departLane="best" departSpeed="max" from="68674961#0" to="569345535#0"/>
    <trip id="veh125" type="veh_passenger" depart="98.53" departLane="best" departSpeed="max" from="46469727#0" to="968513230#3"/>
    <trip id="veh126" type="veh_passenger" depart="99.32" departLane="best" from="460606347#0" to="-167922077#2"/>
    <trip id="veh127" type="veh_passenger" depart="100.11" departLane="best" from="569345544#0" to="195743343#3"/>
    <trip id="veh128" type="veh_passenger" depart="100.90" departLane="best" departSpeed="max" from="496989355#0" to="743358444#1"/>
    <trip id="veh129" type="veh_passenger" depart="101.68" departLane="best" departSpeed="max" from="1090370026#0" to="1049920715#0"/>
    <trip id="veh130" type="veh_passenger" depart="102.47" departLane="best" from="1051743127#0" to="458166897#18"/>
    <trip id="veh131" type="veh_passenger" depart="103.26" departLane="best" from="195743182#0" to="458180185#0"/>
    <trip id="veh132" type="veh_passenger" depart="104.05" departLane="best" from="542257009#5" to="1201651435#0"/>
    <trip id="veh133" type="veh_passenger" depart="104.84" departLane="best" departSpeed="max" from="46520834" to="194926855#0"/>
    <trip id="veh134" type="veh_passenger" depart="105.63" departLane="best" from="458180185#0" to="618990022#20"/>
    <trip id="veh135" type="veh_passenger" depart="106.41" departLane="best" from="420906753" to="195743336#3"/>
    <trip id="veh136" type="veh_passenger" depart="107.20" departLane="best" departSpeed="max" from="-1087048475#1" to="511755381#0"/>
    <trip id="veh137" type="veh_passenger" depart="107.99" departLane="best" from="-46520921#4" to="194926851#2"/>
    <trip id="veh138" type="veh_passenger" depart="108.78" departLane="best" departSpeed="max" from="5671115#0" to="458166897#18"/>
    <trip id="veh139" type="veh_passenger" depart="109.57" departLane="best" from="420907903" to="-167922077#2"/>
    <trip id="veh140" type="veh_passenger" depart="110.35" departLane="best" departSpeed="max" from="1031879418#0" to="569345537#2"/>
    <trip id="veh141" type="veh_passenger" depart="111.14" departLane="best" from="727702633" to="458166897#18"/>
    <trip id="veh142" type="veh_passenger" depart="111.93" departLane="best" departSpeed="max" from="618990022#0" to="458177129"/>
    <trip id="veh143" type="veh_passenger" depart="112.72" departLane="best" from="1124078899#0" to="1051750427#0"/>
    <trip id="veh144" type="veh_passenger" depart="113.51" departLane="best" departSpeed="max" from="196116976#0" to="587038081#0"/>
    <trip id="veh145" type="veh_passenger" depart="114.30" departLane="best" from="1049841322#12" to="5671709#0"/>
    <trip id="veh146" type="veh_passenger" depart="115.08" departLane="best" from="68674961#2" to="1201651435#2"/>
    <trip id="veh147" type="veh_passenger" depart="115.87" departLane="best" departSpeed="max" from="194920158#0" to="1043336433#0"/>
    <trip id="veh148" type="veh_passenger" depart="116.66" departLane="best" from="1021068251#0" to="569345537#4"/>
    <trip id="veh149" type="veh_passenger" depart="117.45" departLane="best" departSpeed="max" from="420902874#0" to="460585328#10"/>
    <trip id="veh150" type="veh_passenger" depart="118.24" departLane="best" from="1136460177#0" to="717625447#0"/>
    <trip id="veh151" type="veh_passenger" depart="119.03" departLane="best" departSpeed="max" from="68668519" to="966105510#0"/>
    <trip id="veh152" type="veh_passenger" depart="119.81" departLane="best" from="-384649121#7" to="499172074#10"/>
    <trip id="veh153" type="veh_passenger" depart="120.60" departLane="best" from="127693103#0" to="717625448#0"/>
    <trip id="veh154" type="veh_passenger" depart="121.39" departLane="best" from="569345518#0" to="5672149#3"/>
    <trip id="veh155" type="veh_passenger" depart="122.18" departLane="best" from="569345537#6" to="195743182#0"/>
    <trip id="veh156" type="veh_passenger" depart="122.97" departLane="best" departSpeed="max" from="68668519" to="5671129#0"/>
    <trip id="veh157" type="veh_passenger" depart="123.76" departLane="best" from="1210909171#0" to="542257430#0"/>
    <trip id="veh158" type="veh_passenger" depart="124.54" departLane="best" from="458166892#0" to="195743343#3"/>
    <trip id="veh159" type="veh_passenger" depart="125.33" departLane="best" departSpeed="max" from="569345508#0" to="1210909171#0"/>
    <trip id="veh160" type="veh_passenger" depart="126.12" departLane="best" departSpeed="max" from="-36271338#8" to="1165644579#0"/>
    <trip id="veh161" type="veh_passenger" depart="126.91" departLane="best" departSpeed="max" from="226041012#0" to="5672155#0"/>
    <trip id="veh162" type="veh_passenger" depart="127.70" departLane="best" from="814278019#0" to="195743336#6"/>
    <trip id="veh163" type="veh_passenger" depart="128.48" departLane="best" from="46522006#2" to="420356173#0"/>
    <trip id="veh164" type="veh_passenger" depart="129.27" departLane="best" departSpeed="max" from="965833822#0" to="458166897#18"/>
    <trip id="veh165" type="veh_passenger" depart="130.06" departLane="best" departSpeed="max" from="733667933#0" to="1049920715#0"/>
    <trip id="veh166" type="veh_passenger" depart="130.85" departLane="best" from="858965315#0" to="1136391283#3"/>
    <trip id="veh167" type="veh_passenger" depart="131.64" departLane="best" from="803047266#0" to="194926855#0"/>
    <trip id="veh168" type="veh_passenger" depart="132.43" departLane="best" from="1051744778#0" to="420901679#0"/>
    <trip id="veh169" type="veh_passenger" depart="133.21" departLane="best" from="458180190#0" to="458177133#3"/>
    <trip id="veh170" type="veh_passenger" depart="134.00" departLane="best" departSpeed="max" from="46469720#0" to="458166892#3"/>
    <trip id="veh171" type="veh_passenger" depart="134.79" departLane="best" from="-420356169#1" to="458177129"/>
    <trip id="veh172" type="veh_passenger" depart="135.58" departLane="best" departSpeed="max" from="194920158#0" to="46521993#0"/>
    <trip id="veh173" type="veh_passenger" depart="136.37" departLane="best" departSpeed="max" from="-1087048475#1" to="693345069#0"/>
    <trip id="veh174" type="veh_passenger" depart="137.16" departLane="best" departSpeed="max" from="458180192#0" to="492489893#2"/>
    <trip id="veh175" type="veh_passenger" depart="137.94" departLane="best" departSpeed="max" from="5671115#0" to="46334593#0"/>
    <trip id="veh176" type="veh_passenger" depart="138.73" departLane="best" from="381565180#0" to="1025734022#0"/>
    <trip id="veh177" type="veh_passenger" depart="139.52" departLane="best" departSpeed="max" from="496989355#0" to="226041006#2"/>
    <trip id="veh178" type="veh_passenger" depart="140.31" departLane="best" from="196116976#3" to="5671129#0"/>
    <trip id="veh179" type="veh_passenger" depart="141.10" departLane="best" from="542257430#0" to="195743343#3"/>
    <trip id="veh180" type="veh_passenger" depart="141.88" departLane="best" departSpeed="max" from="196116976#0" to="420901679#0"/>
    <trip id="veh181" type="veh_passenger" depart="142.67" departLane="best" from="420901690#3" to="195743343#3"/>
    <trip id="veh182" type="veh_passenger" depart="143.46" departLane="best" from="1088325196#0" to="420901679#0"/>
    <trip id="veh183" type="veh_passenger" depart="144.25" departLane="best" departSpeed="max" from="733667933#0" to="46443656#11"/>
    <trip id="veh184" type="veh_passenger" depart="145.04" departLane="best" from="727702632#0" to="458180191#6"/>
    <trip id="veh185" type="veh_passenger" depart="145.83" departLane="best" from="195743345#0" to="458166897#18"/>
    <trip id="veh186" type="veh_passenger" depart="146.61" departLane="best" departSpeed="max" from="-1087048475#1" to="195743343#3"/>
    <trip id="veh187" type="veh_passenger" depart="147.40" departLane="best" from="420907906" to="458177129"/>
    <trip id="veh188" type="veh_passenger" depart="148.19" departLane="best" from="496983397#0" to="420906752"/>
    <trip id="veh189" type="veh_passenger" depart="148.98" departLane="best" from="438385431#3" to="1201651435#2"/>
    <trip id="veh191" type="veh_passenger" depart="150.56" departLane="best" from="569345515#0" to="1124078899#0"/>
    <trip id="veh192" type="veh_passenger" depart="151.34" departLane="best" from="1034529064#0" to="458166893#4"/>
    <trip id="veh193" type="veh_passenger" depart="152.13" departLane="best" departSpeed="max" from="46520834" to="226041020#0"/>
    <trip id="veh194" type="veh_passenger" depart="152.92" departLane="best" from="569345546#0" to="511699175#0"/>
    <trip id="veh195" type="veh_passenger" depart="153.71" departLane="best" departSpeed="max" from="496989355#0" to="1207834765"/>
    <trip id="veh197" type="veh_passenger" depart="155.29" departLane="best" departSpeed="max" from="167922077#0" to="420907903"/>
    <trip id="veh198" type="veh_passenger" depart="156.07" departLane="best" departSpeed="max" from="68668519" to="1025734022#0"/>
    <trip id="veh199" type="veh_passenger" depart="156.86" departLane="best" departSpeed="max" from="420902874#0" to="460585328#22"/>
    <trip id="veh200" type="veh_passenger" depart="157.65" departLane="best" from="846142552#2" to="464516471#4"/>
    <trip id="veh201" type="veh_passenger" depart="158.44" departLane="best" departSpeed="max" from="458180186#0" to="194920158#11"/>
    <trip id="veh202" type="veh_passenger" depart="159.23" departLane="best" from="496983398#0" to="-167922077#2"/>
    <trip id="veh203" type="veh_passenger" depart="160.01" departLane="best" departSpeed="max" from="5671115#0" to="511755381#0"/>
    <trip id="veh204" type="veh_passenger" depart="160.80" departLane="best" from="1051743127#0" to="420901679#0"/>
    <trip id="veh205" type="veh_passenger" depart="161.59" departLane="best" departSpeed="max" from="1150705656#0" to="812949647#3"/>
    <trip id="veh206" type="veh_passenger" depart="162.38" departLane="best" departSpeed="max" from="458180187#0" to="1021068251#0"/>
    <trip id="veh207" type="veh_passenger" depart="163.17" departLane="best" departSpeed="max" from="194920158#0" to="5671129#0"/>
    <trip id="veh208" type="veh_passenger" depart="163.96" departLane="best" from="448686048#0" to="541331485#0"/>
    <trip id="veh209" type="veh_passenger" depart="164.74" departLane="best" departSpeed="max" from="496989355#0" to="968513230#3"/>
    <trip id="veh210" type="veh_passenger" depart="165.53" departLane="best" from="46481747#0" to="812949647#0"/>
    <trip id="veh211" type="veh_passenger" depart="166.32" departLane="best" departSpeed="max" from="68674961#0" to="458180191#0"/>
    <trip id="veh212" type="veh_passenger" depart="167.11" departLane="best" from="542257430#0" to="448686048#0"/>
    <trip id="veh213" type="veh_passenger" depart="167.90" departLane="best" departSpeed="max" from="618990022#0" to="458166897#18"/>
    <trip id="veh214" type="veh_passenger" depart="168.69" departLane="best" from="68674961#8" to="505317783#0"/>
    <trip id="veh215" type="veh_passenger" depart="169.47" departLane="best" from="458166897#6" to="194926847#0"/>
    <trip id="veh216" type="veh_passenger" depart="170.26" departLane="best" departSpeed="max" from="167922077#0" to="460585328#22"/>
    <trip id="veh217" type="veh_passenger" depart="171.05" departLane="best" departSpeed="max" from="5671315#0" to="458166893#4"/>
    <trip id="veh218" type="veh_passenger" depart="171.84" departLane="best" departSpeed="max" from="46482602#0" to="195743336#0"/>
    <trip id="veh219" type="veh_passenger" depart="172.63" departLane="best" departSpeed="max" from="1031879418#0" to="195743343#3"/>
    <trip id="veh220" type="veh_passenger" depart="173.41" departLane="best" from="194926855#0" to="226041003#0"/>
    <trip id="veh221" type="veh_passenger" depart="174.20" departLane="best" departSpeed="max" from="458180192#0" to="1087744935#3"/>
    <trip id="veh222" type="veh_passenger" depart="174.99" departLane="best" from="167922070#0" to="464516471#10"/>
    <trip id="veh223" type="veh_passenger" depart="175.78" departLane="best" from="511699184#0" to="1025734020#3"/>
    <trip id="veh224" type="veh_passenger" depart="176.57" departLane="best" departSpeed="max" from="420902874#0" to="458166897#18"/>
    <trip id="veh225" type="veh_passenger" depart="177.36" departLane="best" from="420902878#0" to="1201651435#2"/>
    <trip id="veh226" type="veh_passenger" depart="178.14" departLane="best" from="420905130#2" to="618990022#19"/>
    <trip id="veh227" type="veh_passenger" depart="178.93" departLane="best" from="464515891#0" to="464516471#2"/>
    <trip id="veh228" type="veh_passenger" depart="179.72" departLane="best" departSpeed="max" from="68668519" to="511755381#0"/>
    <trip id="veh229" type="veh_passenger" depart="180.51" departLane="best" from="397795464#0" to="-167922077#2"/>
    <trip id="veh230" type="veh_passenger" depart="181.30" departLane="best" departSpeed="max" from="308322447#0" to="511699178"/>
    <trip id="veh231" type="veh_passenger" depart="182.09" departLane="best" departSpeed="max" from="68668519" to="812949647#3"/>
    <trip id="veh232" type="veh_passenger" depart="182.87" departLane="best" from="420905130#0" to="505317783#0"/>
    <trip id="veh233" type="veh_passenger" depart="183.66" departLane="best" departSpeed="max" from="460585328#0" to="458180183#0"/>
    <trip id="veh234" type="veh_passenger" depart="184.45" departLane="best" from="1207834767#0" to="1201651435#2"/>
    <trip id="veh236" type="veh_passenger" depart="186.03" departLane="best" departSpeed="max" from="420902874#0" to="1117867038#0"/>
    <trip id="veh237" type="veh_passenger" depart="186.82" departLane="best" from="458166897#0" to="1051750427#0"/>
    <trip id="veh239" type="veh_passenger" depart="188.39" departLane="best" from="458166894#0" to="458166897#3"/>
    <trip id="veh240" type="veh_passenger" depart="189.18" departLane="best" departSpeed="max" from="-384826723#1" to="460585328#22"/>
    <trip id="veh241" type="veh_passenger" depart="189.97" departLane="best" departSpeed="max" from="1090370026#0" to="420906752"/>
    <trip id="veh243" type="veh_passenger" depart="191.54" departLane="best" departSpeed="max" from="1201651437#0" to="226041006#2"/>