<?xml version="1.0" encoding="UTF-8"?>

<!-- generated on 2024-07-19 21:20:37.066949 by osmWebWizard.py UNKNOWN
<configuration>
    <net-file value="/home/diegocdts/Sumo/_ipanema/osm.net.xml.gz"/>
    <output-trip-file value="/home/diegocdts/Sumo/_ipanema/osm.pedestrian.trips.xml"/>
    <route-file value="/home/diegocdts/Sumo/_ipanema/osm.pedestrian.rou.xml"/>
    <pedestrians value="True"/>
    <prefix value="ped"/>
    <vehicle-class value="pedestrian"/>
    <fringe-factor value="2"/>
    <max-distance value="2000.0"/>
    <insertion-density value="20.0"/>
</configuration>
-->

<routes xmlns:xsi="http://www.w3.org/2001/XMLSchema-instance" xsi:noNamespaceSchemaLocation="http://sumo.dlr.de/xsd/routes_file.xsd">
    <vType id="ped_pedestrian" vClass="pedestrian"/>
    <person id="ped0" depart="0.00" type="ped_pedestrian">
        <walk from="461590513#1" to="-160970020"/>
    </person>
    <person id="ped1" depart="1.76" type="ped_pedestrian">
        <walk from="962701054#1" to="-327009351#0"/>
    </person>
    <person id="ped2" depart="3.52" type="ped_pedestrian">
        <walk from="-95580769#0" to="381625941#3"/>
    </person>
    <person id="ped3" depart="5.28" type="ped_pedestrian">
        <walk from="-144893214#1" to="-843380105#2"/>
    </person>
    <person id="ped4" depart="7.04" type="ped_pedestrian">
        <walk from="472795411#3" to="381632773#1"/>
    </person>
    <person id="ped5" depart="8.79" type="ped_pedestrian">
        <walk from="962063463" to="-1185388151#0"/>
    </person>
    <person id="ped6" depart="10.55" type="ped_pedestrian">
        <walk from="140694516#3" to="-4217308#1"/>
    </person>
    <person id="ped7" depart="12.31" type="ped_pedestrian">
        <walk from="965748366" to="145338247"/>
    </person>
    <person id="ped8" depart="14.07" type="ped_pedestrian">
        <walk from="-327009351#2" to="-329054396#1"/>
    </person>
    <person id="ped9" depart="15.83" type="ped_pedestrian">
        <walk from="962701014" to="435243574#1"/>
    </person>
    <person id="ped10" depart="17.59" type="ped_pedestrian">
        <walk from="962063461" to="843380105#4"/>
    </person>
    <person id="ped11" depart="19.35" type="ped_pedestrian">
        <walk from="228112617" to="381639474#2"/>
    </person>
    <person id="ped12" depart="21.11" type="ped_pedestrian">
        <walk from="962378924" to="461590500#7"/>
    </person>
    <person id="ped13" depart="22.87" type="ped_pedestrian">
        <walk from="962701024#0" to="413500605#3"/>
    </person>
    <person id="ped14" depart="24.62" type="ped_pedestrian">
        <walk from="624273827#2" to="-228112616#0"/>
    </person>
    <person id="ped15" depart="26.38" type="ped_pedestrian">
        <walk from="-30969253#3" to="-968722846#1"/>
    </person>
    <person id="ped16" depart="28.14" type="ped_pedestrian">
        <walk from="-329054396#1" to="1133109090"/>
    </person>
    <person id="ped17" depart="29.90" type="ped_pedestrian">
        <walk from="461590509" to="228112617"/>
    </person>
    <person id="ped18" depart="31.66" type="ped_pedestrian">
        <walk from="220555265#1" to="-957266706"/>
    </person>
    <person id="ped19" depart="33.42" type="ped_pedestrian">
        <walk from="1066233418#0" to="965748356"/>
    </person>
    <person id="ped20" depart="35.18" type="ped_pedestrian">
        <walk from="472795411#1" to="461590500#1"/>
    </person>
    <person id="ped21" depart="36.94" type="ped_pedestrian">
        <walk from="-413500612" to="228196663#1"/>
    </person>
    <person id="ped22" depart="38.70" type="ped_pedestrian">
        <walk from="968722850#0" to="472795411#1"/>
    </person>
    <person id="ped23" depart="40.45" type="ped_pedestrian">
        <walk from="381632771" to="488128429"/>
    </person>
    <person id="ped24" depart="42.21" type="ped_pedestrian">
        <walk from="962701007#1" to="962063448#5"/>
    </person>
    <person id="ped25" depart="43.97" type="ped_pedestrian">
        <walk from="-962985961#0" to="-164919852#1"/>
    </person>
    <person id="ped26" depart="45.73" type="ped_pedestrian">
        <walk from="1242300749" to="1066249908"/>
    </person>
    <person id="ped27" depart="47.49" type="ped_pedestrian">
        <walk from="-845340236" to="965748362"/>
    </person>
    <person id="ped28" depart="49.25" type="ped_pedestrian">
        <walk from="477129587" to="228197152#3"/>
    </person>
    <person id="ped29" depart="51.01" type="ped_pedestrian">
        <walk from="963060008" to="320524352#0"/>
    </person>
    <person id="ped30" depart="52.77" type="ped_pedestrian">
        <walk from="1066233417#0" to="1066233417#0"/>
    </person>
    <person id="ped31" depart="54.53" type="ped_pedestrian">
        <walk from="381632777" to="1066249902#1"/>
    </person>
    <person id="ped32" depart="56.28" type="ped_pedestrian">
        <walk from="413500599#0" to="962974836"/>
    </person>
    <person id="ped33" depart="58.04" type="ped_pedestrian">
        <walk from="-329119139" to="461590509"/>
    </person>
    <person id="ped34" depart="59.80" type="ped_pedestrian">
        <walk from="-228175046#0" to="228196663#3"/>
    </person>
    <person id="ped35" depart="61.56" type="ped_pedestrian">
        <walk from="-1185388152" to="833048631"/>
    </person>
    <person id="ped36" depart="63.32" type="ped_pedestrian">
        <walk from="488126131#0" to="381632764"/>
    </person>
    <person id="ped37" depart="65.08" type="ped_pedestrian">
        <walk from="1066233418#0" to="472795411#2"/>
    </person>
    <person id="ped38" depart="66.84" type="ped_pedestrian">
        <walk from="-329119149#2" to="228376063#2"/>
    </person>
    <person id="ped39" depart="68.60" type="ped_pedestrian">
        <walk from="228376069#1" to="966307807#1"/>
    </person>
    <person id="ped40" depart="70.36" type="ped_pedestrian">
        <walk from="370164951#2" to="-783216749#1"/>
    </person>
    <person id="ped41" depart="72.11" type="ped_pedestrian">
        <walk from="962063448#0" to="381627500"/>
    </person>
    <person id="ped42" depart="73.87" type="ped_pedestrian">
        <walk from="-1081030895" to="140694516#1"/>
    </person>
    <person id="ped43" depart="75.63" type="ped_pedestrian">
        <walk from="-140694516#4" to="965748352#1"/>
    </person>
    <person id="ped44" depart="77.39" type="ped_pedestrian">
        <walk from="1242300742#1" to="-228174911#6"/>
    </person>
    <person id="ped45" depart="79.15" type="ped_pedestrian">
        <walk from="962701040#1" to="965748365"/>
    </person>
    <person id="ped46" depart="80.91" type="ped_pedestrian">
        <walk from="-27293697#3" to="962063447#1"/>
    </person>
    <person id="ped47" depart="82.67" type="ped_pedestrian">
        <walk from="956981678" to="-388808405#1"/>
    </person>
    <person id="ped48" depart="84.43" type="ped_pedestrian">
        <walk from="228197729#0" to="-962692013#0"/>
    </person>
    <person id="ped49" depart="86.19" type="ped_pedestrian">
        <walk from="-833048633" to="1242300760#0"/>
    </person>
    <person id="ped50" depart="87.94" type="ped_pedestrian">
        <walk from="-370164937#1" to="-964437443"/>
    </person>
    <person id="ped51" depart="89.70" type="ped_pedestrian">
        <walk from="140694516#1" to="4217308#1"/>
    </person>
    <person id="ped52" depart="91.46" type="ped_pedestrian">
        <walk from="-962985961#1" to="-962985961#1"/>
    </person>
    <person id="ped53" depart="93.22" type="ped_pedestrian">
        <walk from="-962985961#0" to="963060008"/>
    </person>
    <person id="ped54" depart="94.98" type="ped_pedestrian">
        <walk from="962701022#1" to="-29627743#2"/>
    </person>
    <person id="ped55" depart="96.74" type="ped_pedestrian">
        <walk from="-968082191#0" to="488124927"/>
    </person>
    <person id="ped56" depart="98.50" type="ped_pedestrian">
        <walk from="-917976500#1" to="-413500589#1"/>
    </person>
    <person id="ped57" depart="100.26" type="ped_pedestrian">
        <walk from="965748351" to="413500597#3"/>
    </person>
    <person id="ped58" depart="102.02" type="ped_pedestrian">
        <walk from="-327009356#0" to="228345093#1"/>
    </person>
    <person id="ped59" depart="103.77" type="ped_pedestrian">
        <walk from="228197729#0" to="329054396#0"/>
    </person>
    <person id="ped60" depart="105.53" type="ped_pedestrian">
        <walk from="968722842" to="-329054396#3"/>
    </person>
    <person id="ped61" depart="107.29" type="ped_pedestrian">
        <walk from="228196665#1" to="145338249#1"/>
    </person>
    <person id="ped62" depart="109.05" type="ped_pedestrian">
        <walk from="962701024#0" to="1066233418#0"/>
    </person>
    <person id="ped63" depart="110.81" type="ped_pedestrian">
        <walk from="228345093#0" to="962701032#1"/>
    </person>
    <person id="ped64" depart="112.57" type="ped_pedestrian">
        <walk from="966307816#1" to="965748350#1"/>
    </person>
    <person id="ped65" depart="114.33" type="ped_pedestrian">
        <walk from="962701015#0" to="-426469042"/>
    </person>
    <person id="ped66" depart="116.09" type="ped_pedestrian">
        <walk from="329119139" to="-962692013#3"/>
    </person>
    <person id="ped67" depart="117.85" type="ped_pedestrian">
        <walk from="228196665#0" to="-228175046#0"/>
    </person>
    <person id="ped68" depart="119.60" type="ped_pedestrian">
        <walk from="228112617" to="968722848"/>
    </person>
    <person id="ped69" depart="121.36" type="ped_pedestrian">
        <walk from="1066233417#0" to="962063451#0"/>
    </person>
    <person id="ped70" depart="123.12" type="ped_pedestrian">
        <walk from="228376738#0" to="228198314#0"/>
    </person>
    <person id="ped71" depart="124.88" type="ped_pedestrian">
        <walk from="381632769" to="795083585#0"/>
    </person>
    <person id="ped72" depart="126.64" type="ped_pedestrian">
        <walk from="-413500604" to="1242300743#1"/>
    </person>
    <person id="ped73" depart="128.40" type="ped_pedestrian">
        <walk from="966307816#1" to="413500607#1"/>
    </person>
    <person id="ped74" depart="130.16" type="ped_pedestrian">
        <walk from="-228174910#1" to="413500612"/>
    </person>
    <person id="ped75" depart="131.92" type="ped_pedestrian">
        <walk from="370164954#0" to="962701024#1"/>
    </person>
    <person id="ped76" depart="133.68" type="ped_pedestrian">
        <walk from="-413500606" to="966307816#1"/>
    </person>
    <person id="ped77" depart="135.43" type="ped_pedestrian">
        <walk from="4217307#0" to="488126131#1"/>
    </person>
    <person id="ped78" depart="137.19" type="ped_pedestrian">
        <walk from="413500613" to="461590500#8"/>
    </person>
    <person id="ped79" depart="138.95" type="ped_pedestrian">
        <walk from="228197155#1" to="413500611"/>
    </person>
    <person id="ped80" depart="140.71" type="ped_pedestrian">
        <walk from="381625943#1" to="965748355"/>
    </person>
    <person id="ped81" depart="142.47" type="ped_pedestrian">
        <walk from="-843380104#0" to="787846137#0"/>
    </person>
    <person id="ped82" depart="144.23" type="ped_pedestrian">
        <walk from="-968082191#1" to="228197153#0"/>
    </person>
    <person id="ped83" depart="145.99" type="ped_pedestrian">
        <walk from="488124114#1" to="1242300745#1"/>
    </person>
    <person id="ped84" depart="147.75" type="ped_pedestrian">
        <walk from="1242300749" to="956979806#1"/>
    </person>
    <person id="ped85" depart="149.51" type="ped_pedestrian">
        <walk from="970312490#0" to="969993419"/>
    </person>
    <person id="ped86" depart="151.26" type="ped_pedestrian">
        <walk from="1066233417#0" to="965748353#1"/>
    </person>
    <person id="ped87" depart="153.02" type="ped_pedestrian">
        <walk from="962701042#0" to="962701051#0"/>
    </person>
    <person id="ped88" depart="154.78" type="ped_pedestrian">
        <walk from="962692013#0" to="649255392#1"/>
    </person>
    <person id="ped89" depart="156.54" type="ped_pedestrian">
        <walk from="435243574#1" to="968722850#1"/>
    </person>
    <person id="ped90" depart="158.30" type="ped_pedestrian">
        <walk from="962063464#15" to="1242300745#1"/>
    </person>
    <person id="ped91" depart="160.06" type="ped_pedestrian">
        <walk from="488122568#0" to="965748358"/>
    </person>
    <person id="ped92" depart="161.82" type="ped_pedestrian">
        <walk from="-389911927#0" to="-370164937#0"/>
    </person>
    <person id="ped93" depart="163.58" type="ped_pedestrian">
        <walk from="-329056669#4" to="388808405#0"/>
    </person>
    <person id="ped94" depart="165.34" type="ped_pedestrian">
        <walk from="1066233419" to="435243574#2"/>
    </person>
    <person id="ped95" depart="167.09" type="ped_pedestrian">
        <walk from="461590507#0" to="1066249904"/>
    </person>
    <person id="ped96" depart="168.85" type="ped_pedestrian">
        <walk from="333441470" to="963060008"/>
    </person>
    <person id="ped97" depart="170.61" type="ped_pedestrian">
        <walk from="461590511" to="1066249902#0"/>
    </person>
    <person id="ped98" depart="172.37" type="ped_pedestrian">
        <walk from="228197730#0" to="-136470011"/>
    </person>
    <person id="ped99" depart="174.13" type="ped_pedestrian">
        <walk from="1242300742#1" to="962977479"/>
    </person>
    <person id="ped100" depart="175.89" type="ped_pedestrian">
        <walk from="962063452" to="962701031#1"/>
    </person>
    <person id="ped101" depart="177.65" type="ped_pedestrian">
        <walk from="-968722848" to="-329119138"/>
    </person>
    <person id="ped102" depart="179.41" type="ped_pedestrian">
        <walk from="228197152#1" to="461590500#9"/>
    </person>
    <person id="ped103" depart="181.17" type="ped_pedestrian">
        <walk from="-413500604" to="965748352#1"/>
    </person>
    <person id="ped104" depart="182.92" type="ped_pedestrian">
        <walk from="962701026#1" to="968722841"/>
    </person>
    <person id="ped105" depart="184.68" type="ped_pedestrian">
        <walk from="962063464#10" to="962701052#1"/>
    </person>
    <person id="ped106" depart="186.44" type="ped_pedestrian">
        <walk from="-144893214#0" to="928643569"/>
    </person>
    <person id="ped107" depart="188.20" type="ped_pedestrian">
        <walk from="1245570523" to="965748352#2"/>
    </person>
    <person id="ped108" depart="189.96" type="ped_pedestrian">
        <walk from="962063457" to="962701036#1"/>
    </person>
    <person id="ped109" depart="191.72" type="ped_pedestrian">
        <walk from="962063464#1" to="1066249906"/>
    </person>
    <person id="ped110" depart="193.48" type="ped_pedestrian">
        <walk from="962701033" to="962701030#0"/>
    </person>
    <person id="ped111" depart="195.24" type="ped_pedestrian">
        <walk from="262672155" to="1242300750#2"/>
    </person>
    <person id="ped112" depart="197.00" type="ped_pedestrian">
        <walk from="1242300761" to="962701036#1"/>
    </person>
    <person id="ped113" depart="198.75" type="ped_pedestrian">
        <walk from="966307813#1" to="113813714"/>
    </person>
    <person id="ped114" depart="200.51" type="ped_pedestrian">
        <walk from="461590518" to="228197153#3"/>
    </person>
    <person id="ped115" depart="202.27" type="ped_pedestrian">
        <walk from="965748352#2" to="-370164929#0"/>
    </person>
    <person id="ped116" depart="204.03" type="ped_pedestrian">
        <walk from="966307818#1" to="-783216749#1"/>
    </person>
    <person id="ped117" depart="205.79" type="ped_pedestrian">
        <walk from="966307807#1" to="1066249905"/>
    </person>
    <person id="ped118" depart="207.55" type="ped_pedestrian">
        <walk from="-329119138" to="228376063#2"/>
    </person>
    <person id="ped119" depart="209.31" type="ped_pedestrian">
        <walk from="42419097#5" to="381625943#2"/>
    </person>
    <person id="ped120" depart="211.07" type="ped_pedestrian">
        <walk from="228186712#0" to="413500605#2"/>
    </person>
    <person id="ped121" depart="212.83" type="ped_pedestrian">
        <walk from="-113813714" to="965748350#0"/>
    </person>
    <person id="ped122" depart="214.58" type="ped_pedestrian">
        <walk from="488122568#0" to="140694516#6"/>
    </person>
    <person id="ped123" depart="216.34" type="ped_pedestrian">
        <walk from="1242300745#1" to="962701020#1"/>
    </person>
    <person id="ped124" depart="218.10" type="ped_pedestrian">
        <walk from="72157010" to="1242300748"/>
    </person>
    <person id="ped125" depart="219.86" type="ped_pedestrian">
        <walk from="228196665#1" to="1242300743#0"/>
    </person>
    <person id="ped126" depart="221.62" type="ped_pedestrian">
        <walk from="965748353#0" to="488126949"/>
    </person>
    <person id="ped127" depart="223.38" type="ped_pedestrian">
        <walk from="-1008709625" to="1185388151#1"/>
    </person>
    <person id="ped128" depart="225.14" type="ped_pedestrian">
        <walk from="228198319#1" to="-962692013#3"/>
    </person>
    <person id="ped129" depart="226.90" type="ped_pedestrian">
        <walk from="320524352#2" to="962985961#1"/>
    </person>
    <person id="ped130" depart="228.66" type="ped_pedestrian">
        <walk from="962063452" to="-488124117"/>
    </person>
    <person id="ped131" depart="230.41" type="ped_pedestrian">
        <walk from="-30969253#7" to="381625956#1"/>
    </person>
    <person id="ped132" depart="232.17" type="ped_pedestrian">
        <walk from="461590506" to="144893214#3"/>
    </person>
    <person id="ped133" depart="233.93" type="ped_pedestrian">
        <walk from="962063464#2" to="956979806#1"/>
    </person>
    <person id="ped134" depart="235.69" type="ped_pedestrian">
        <walk from="962701015#1" to="-30106156#1"/>
    </person>
    <person id="ped135" depart="237.45" type="ped_pedestrian">
        <walk from="228197154#0" to="461590513#0"/>
    </person>
    <person id="ped136" depart="239.21" type="ped_pedestrian">
        <walk from="363538899" to="-970312490#0"/>
    </person>
    <person id="ped137" depart="240.97" type="ped_pedestrian">
        <walk from="477129587" to="-1185388147#1"/>
    </person>
    <person id="ped138" depart="242.73" type="ped_pedestrian">
        <walk from="-329056669#4" to="228198314#2"/>
    </person>
    <person id="ped139" depart="244.49" type="ped_pedestrian">
        <walk from="-42419097#4" to="966307813#1"/>
    </person>
    <person id="ped140" depart="246.24" type="ped_pedestrian">
        <walk from="381625941#2" to="-228174909#0"/>
    </person>
    <person id="ped141" depart="248.00" type="ped_pedestrian">
        <walk from="-968722848" to="962701020#1"/>
    </person>
    <person id="ped142" depart="249.76" type="ped_pedestrian">
        <walk from="228376739" to="962063464#1"/>
    </person>
    <person id="ped143" depart="251.52" type="ped_pedestrian">
        <walk from="488122572" to="968722851#1"/>
    </person>
    <person id="ped144" depart="253.28" type="ped_pedestrian">
        <walk from="4217307#0" to="965748367"/>
    </person>
    <person id="ped145" depart="255.04" type="ped_pedestrian">
        <walk from="72157010" to="381625941#2"/>
    </person>
    <person id="ped146" depart="256.80" type="ped_pedestrian">
        <walk from="962701064#0" to="956679503#2"/>
    </person>
    <person id="ped147" depart="258.56" type="ped_pedestrian">
        <walk from="-968722847#0" to="46900075"/>
    </person>
    <person id="ped148" depart="260.32" type="ped_pedestrian">
        <walk from="461590500#7" to="1133109087#1"/>
    </person>
    <person id="ped149" depart="262.07" type="ped_pedestrian">
        <walk from="1066233418#4" to="1245570525"/>
    </person>
    <person id="ped150" depart="263.83" type="ped_pedestrian">
        <walk from="381627499#1" to="-413500593#3"/>
    </person>
    <person id="ped151" depart="265.59" type="ped_pedestrian">
        <walk from="-963021876#0" to="624273826#1"/>
    </person>
    <person id="ped152" depart="267.35" type="ped_pedestrian">
        <walk from="228197154#1" to="-928643569"/>
    </person>
    <person id="ped153" depart="269.11" type="ped_pedestrian">
        <walk from="228197155#3" to="963021876#1"/>
    </person>
    <person id="ped154" depart="270.87" type="ped_pedestrian">
        <walk from="413500598" to="624273827#2"/>
    </person>
    <person id="ped155" depart="272.63" type="ped_pedestrian">
        <walk from="962701019#2" to="962063447#6"/>
    </person>
    <person id="ped156" depart="274.39" type="ped_pedestrian">
        <walk from="962701018#1" to="966307807#1"/>
    </person>
    <person id="ped157" depart="276.15" type="ped_pedestrian">
        <walk from="228197155#1" to="956679504#2"/>
    </person>
    <person id="ped158" depart="277.90" type="ped_pedestrian">
        <walk from="381632756" to="435243574#1"/>
    </person>
    <person id="ped159" depart="279.66" type="ped_pedestrian">
        <walk from="-962063465" to="-962985961#0"/>
    </person>
    <person id="ped160" depart="281.42" type="ped_pedestrian">
        <walk from="1245570527#1" to="488127591"/>
    </person>
    <person id="ped161" depart="283.18" type="ped_pedestrian">
        <walk from="228196665#3" to="-42419097#4"/>
    </person>
    <person id="ped162" depart="284.94" type="ped_pedestrian">
        <walk from="461590500#3" to="-160970022#1"/>
    </person>
    <person id="ped163" depart="286.70" type="ped_pedestrian">
        <walk from="228196663#2" to="413500593#0"/>
    </person>
    <person id="ped164" depart="288.46" type="ped_pedestrian">
        <walk from="-228112616#0" to="228196663#1"/>
    </person>
    <person id="ped165" depart="290.22" type="ped_pedestrian">
        <walk from="-845340236" to="140694516#3"/>
    </person>
    <person id="ped166" depart="291.98" type="ped_pedestrian">
        <walk from="956979806#2" to="228196663#1"/>
    </person>
    <person id="ped167" depart="293.74" type="ped_pedestrian">
        <walk from="-140694516#4" to="381632766"/>
    </person>
    <person id="ped168" depart="295.49" type="ped_pedestrian">
        <walk from="970312490#1" to="164919857#17"/>
    </person>
    <person id="ped169" depart="297.25" type="ped_pedestrian">
        <walk from="472795411#3" to="962063450#1"/>
    </person>
    <person id="ped170" depart="299.01" type="ped_pedestrian">
        <walk from="-140694516#5" to="-413500609"/>
    </person>
    <person id="ped171" depart="300.77" type="ped_pedestrian">
        <walk from="-372048529#1" to="488125378"/>
    </person>
    <person id="ped172" depart="302.53" type="ped_pedestrian">
        <walk from="381639474#0" to="-962974837#0"/>
    </person>
    <person id="ped173" depart="304.29" type="ped_pedestrian">
        <walk from="543774609#1" to="962063447#7"/>
    </person>
    <person id="ped174" depart="306.05" type="ped_pedestrian">
        <walk from="-4217308#3" to="461590500#0"/>
    </person>
    <person id="ped175" depart="307.81" type="ped_pedestrian">
        <walk from="95580769#1" to="-370164929#0"/>
    </person>
    <person id="ped176" depart="309.57" type="ped_pedestrian">
        <walk from="-329119138" to="-160970020"/>
    </person>
    <person id="ped177" depart="311.32" type="ped_pedestrian">
        <walk from="1242300745#0" to="488126949"/>
    </person>
    <person id="ped178" depart="313.08" type="ped_pedestrian">
        <walk from="965748367" to="228197153#0"/>
    </person>
    <person id="ped179" depart="314.84" type="ped_pedestrian">
        <walk from="657201984" to="-30969253#4"/>
    </person>
    <person id="ped180" depart="316.60" type="ped_pedestrian">
        <walk from="488128428#0" to="461590509"/>
    </person>
    <person id="ped181" depart="318.36" type="ped_pedestrian">
        <walk from="962701015#1" to="426469043#1"/>
    </person>
    <person id="ped182" depart="320.12" type="ped_pedestrian">
        <walk from="228197730#0" to="228175046#1"/>
    </person>
    <person id="ped183" depart="321.88" type="ped_pedestrian">
        <walk from="370164954#3" to="164103416#0"/>
    </person>
    <person id="ped184" depart="323.64" type="ped_pedestrian">
        <walk from="962701015#0" to="962668007"/>
    </person>
    <person id="ped185" depart="325.40" type="ped_pedestrian">
        <walk from="-329056669#2" to="966307816#1"/>
    </person>
    <person id="ped186" depart="327.15" type="ped_pedestrian">
        <walk from="461590509" to="962701004#1"/>
    </person>
    <person id="ped187" depart="328.91" type="ped_pedestrian">
        <walk from="624717002#1" to="228376063#2"/>
    </person>
    <person id="ped188" depart="330.67" type="ped_pedestrian">
        <walk from="1066233418#3" to="962063464#15"/>
    </person>
    <person id="ped189" depart="332.43" type="ped_pedestrian">
        <walk from="381627497#1" to="370164942#0"/>
    </person>
    <person id="ped190" depart="334.19" type="ped_pedestrian">
        <walk from="228197731#3" to="845340235"/>
    </person>
    <person id="ped191" depart="335.95" type="ped_pedestrian">
        <walk from="1066233418#1" to="962701024#0"/>
    </person>
    <person id="ped192" depart="337.71" type="ped_pedestrian">
        <walk from="962668007" to="-327009351#0"/>
    </person>
    <person id="ped193" depart="339.47" type="ped_pedestrian">
        <walk from="962701042#1" to="-970312490#0"/>
    </person>
    <person id="ped194" depart="341.23" type="ped_pedestrian">
        <walk from="228112617" to="-164103416#0"/>
    </person>
    <person id="ped195" depart="342.98" type="ped_pedestrian">
        <walk from="962701016#1" to="-784306340"/>
    </person>
    <person id="ped196" depart="344.74" type="ped_pedestrian">
        <walk from="-845340237" to="962063461"/>
    </person>
    <person id="ped197" depart="346.50" type="ped_pedestrian">
        <walk from="140694516#3" to="962701051#1"/>
    </person>
    <person id="ped198" depart="348.26" type="ped_pedestrian">
        <walk from="624273826#0" to="1133109089"/>
    </person>
    <person id="ped199" depart="350.02" type="ped_pedestrian">
        <walk from="-30969346" to="799510780#1"/>
    </person>
    <person id="ped200" depart="351.78" type="ped_pedestrian">
        <walk from="488128428#0" to="472795411#6"/>
    </person>
    <person id="ped201" depart="353.54" type="ped_pedestrian">
        <walk from="363526313" to="962063456"/>
    </person>
    <person id="ped202" depart="355.30" type="ped_pedestrian">
        <walk from="488128428#1" to="1242300751#0"/>
    </person>
    <person id="ped203" depart="357.06" type="ped_pedestrian">
        <walk from="943013391" to="144893211"/>
    </person>
    <person id="ped204" depart="358.81" type="ped_pedestrian">
        <walk from="624273827#1" to="1066249912#0"/>
    </person>
    <person id="ped205" depart="360.57" type="ped_pedestrian">
        <walk from="-968722851#1" to="-372048529#0"/>
    </person>
    <person id="ped206" depart="362.33" type="ped_pedestrian">
        <walk from="-787846136" to="-371430737#1"/>
    </person>
    <person id="ped207" depart="364.09" type="ped_pedestrian">
        <walk from="329056669#2" to="843095327"/>
    </person>
    <person id="ped208" depart="365.85" type="ped_pedestrian">
        <walk from="966307826" to="381627497#1"/>
    </person>
    <person id="ped209" depart="367.61" type="ped_pedestrian">
        <walk from="1066249904" to="-329056669#2"/>
    </person>
    <person id="ped210" depart="369.37" type="ped_pedestrian">
        <walk from="-787846137#0" to="-968082190"/>
    </person>
    <person id="ped211" depart="371.13" type="ped_pedestrian">
        <walk from="-488124114#1" to="-140694516#3"/>
    </person>
    <person id="ped212" depart="372.89" type="ped_pedestrian">
        <walk from="381627496#1" to="1133109087#1"/>
    </person>
    <person id="ped213" depart="374.64" type="ped_pedestrian">
        <walk from="962701030#0" to="370164954#1"/>
    </person>
    <person id="ped214" depart="376.40" type="ped_pedestrian">
        <walk from="965748353#1" to="363526315"/>
    </person>
    <person id="ped215" depart="378.16" type="ped_pedestrian">
        <walk from="962063464#6" to="228197154#0"/>
    </person>
    <person id="ped216" depart="379.92" type="ped_pedestrian">
        <walk from="-29627743#1" to="461590513#0"/>
    </person>
    <person id="ped217" depart="381.68" type="ped_pedestrian">
        <walk from="-228112617" to="-413500605#3"/>
    </person>
    <person id="ped218" depart="383.44" type="ped_pedestrian">
        <walk from="381639473" to="1242300750#1"/>
    </person>
    <person id="ped219" depart="385.20" type="ped_pedestrian">
        <walk from="969993416#1" to="-371430737#0"/>
    </person>
    <person id="ped220" depart="386.96" type="ped_pedestrian">
        <walk from="228198319#1" to="962701031#1"/>
    </person>
    <person id="ped221" depart="388.72" type="ped_pedestrian">
        <walk from="968722850#1" to="1242300750#2"/>
    </person>
    <person id="ped222" depart="390.47" type="ped_pedestrian">
        <walk from="461590500#2" to="461590500#10"/>
    </person>
    <person id="ped223" depart="392.23" type="ped_pedestrian">
        <walk from="-843380105#1" to="-962665868"/>
    </person>
    <person id="ped224" depart="393.99" type="ped_pedestrian">
        <walk from="488121834#0" to="-4217308#2"/>
    </person>
    <person id="ped225" depart="395.75" type="ped_pedestrian">
        <walk from="413500612" to="1242300740#0"/>
    </person>
    <person id="ped226" depart="397.51" type="ped_pedestrian">
        <walk from="-963021876#1" to="657201983#2"/>
    </person>
    <person id="ped227" depart="399.27" type="ped_pedestrian">
        <walk from="962063449#2" to="461590507#0"/>
    </person>
    <person id="ped228" depart="401.03" type="ped_pedestrian">