<?xml version="1.0" encoding="UTF-8"?>

<!-- generated on 2024-07-19 21:20:38.802611 by osmWebWizard.py UNKNOWN
<configuration>
    <net-file value="/home/diegocdts/Sumo/_ipanema/osm.net.xml.gz"/>
    <output-trip-file value="/home/diegocdts/Sumo/_ipanema/osm.pedestrian.trips.xml"/>
    <route-file value="/home/diegocdts/Sumo/_ipanema/osm.pedestrian.rou.xml"/>
    <pedestrians value="True"/>
    <prefix value="ped"/>
    <vehicle-class value="pedestrian"/>
    <fringe-factor value="2"/>
    <max-distance value="2000.0"/>
    <insertion-density value="20.0"/>
</configuration>
-->

<!-- generated on 2024-07-19 21:20:37 by Eclipse SUMO duarouter Version 1.20.0
<configuration xmlns:xsi="http://www.w3.org/2001/XMLSchema-instance" xsi:noNamespaceSchemaLocation="http://sumo.dlr.de/xsd/duarouterConfiguration.xsd">

    <input>
        <net-file value="/home/diegocdts/Sumo/_ipanema/osm.net.xml.gz"/>
        <route-files value="/home/diegocdts/Sumo/_ipanema/osm.pedestrian.trips.xml"/>
    </input>

    <output>
        <output-file value="/home/diegocdts/Sumo/_ipanema/osm.pedestrian.rou.xml"/>
        <alternatives-output value="NUL"/>
    </output>

    <time>
        <begin value="0.0"/>
        <end value="3600.0"/>
    </time>

    <report>
        <no-warnings value="true"/>
        <ignore-errors value="true"/>
        <no-step-log value="true"/>
    </report>

</configuration>
-->

<routes xmlns:xsi="http://www.w3.org/2001/XMLSchema-instance" xsi:noNamespaceSchemaLocation="http://sumo.dlr.de/xsd/routes_file.xsd">
    <vType id="ped_pedestrian" vClass="pedestrian"/>
    <person id="ped1" type="ped_pedestrian" depart="1.76">
        <walk edges="962701054#1 962701056#1 962701060 -962701058#1 962701062#1 962701064#1 228197730#1 228197730#2 228197730#3 962063447#1 962063447#0 -962063465 -327009351#5 327009351#4 -327009351#3 -327009351#2 327009351#1 -327009351#0"/>
    </person>
    <person id="ped5" type="ped_pedestrian" depart="8.79">
        <walk edges="962063463 962063447#1 228197730#3 228197730#2 228197730#1 962701064#1 962701062#1 -964734222#0 964734222#1 -964734222#2 964734221#0 964734221#1 -27293697#0 -27293697#1 27293697#2 -27293697#3 -27293697#4 -27293697#5 -27293697#6 164919857#1 228198314#2 -164919857#7 164919857#8 -164919857#9 -164919857#10 -164919857#11 164919857#12 164919857#13 164919857#14 164919857#15 963060009#4 963060009#5 843380105#0 843380105#1 843380105#2 -843380105#4 -1185388151#0"/>
    </person>
    <person id="ped6" type="ped_pedestrian" depart="10.55">
        <walk edges="140694516#3 228376062#0 228174909#1 -962974834 -4217308#1"/>
    </person>
    <person id="ped9" type="ped_pedestrian" depart="15.83">
        <walk edges="962701014 228196664#0 228196664#1 228196664#2 228196664#3 962063464#13 962063464#14 962063464#15 962063448#0 962063448#1 962063448#2 962063448#3 962063448#4 962063448#5 435243574#0 435243574#1"/>
    </person>
    <person id="ped10" type="ped_pedestrian" depart="17.59">
        <walk edges="962063461 962063447#3 962063462 -956981264 -962701058#1 -964734222#0 964734222#1 -964734222#2 964734221#0 964734221#1 -27293697#0 -27293697#1 27293697#2 -27293697#3 -27293697#4 -27293697#5 -27293697#6 164919857#1 228198314#2 -164919857#7 164919857#8 -164919857#9 -164919857#10 -164919857#11 164919857#12 164919857#13 164919857#14 164919857#15 963060009#4 963060009#5 843380105#0 843380105#1 843380105#2 843380105#4"/>
    </person>
    <person id="ped15" type="ped_pedestrian" depart="26.38">
        <walk edges="-30969253#3 -30969253#4 -30969253#5 -30969253#6 -30969253#7 228186713#1 -42419097#3 435243574#0 962063448#5 962063448#4 962063448#3 962063448#2 962063448#1 962063448#0 962063464#15 962063464#14 962063464#13 962063464#12 962063464#11 962063464#10 228196665#3 228196665#2 228196665#1 962701019#2 -968722846#1"/>
    </person>
    <person id="ped20" type="ped_pedestrian" depart="35.18">
        <walk edges="472795411#1 472795411#2 472795411#3 1242300742#1 1242300742#0 461590500#1"/>
    </person>
    <person id="ped24" type="ped_pedestrian" depart="42.21">
        <walk edges="962701007#1 962063451#0 962063451#1 962063451#2 962063448#3 962063448#4 962063448#5"/>
    </person>
    <person id="ped26" type="ped_pedestrian" depart="45.73">
        <walk edges="1242300749 461590500#5 461590500#4 1066249908"/>
    </person>
    <person id="ped29" type="ped_pedestrian" depart="51.01">
        <walk edges="963060008 843380105#0 963060009#5 963060009#4 164919857#15 164919857#14 164919857#13 164919857#12 -164919857#11 -164919857#10 -164919857#9 164919857#8 -164919857#7 320524352#0"/>
    </person>
    <person id="ped30" type="ped_pedestrian" depart="52.77">
        <walk edges="1066233417#0"/>
    </person>
    <person id="ped37" type="ped_pedestrian" depart="65.08">
        <walk edges="1066233418#0 1066233420 1066233419 1066233417#0 46900074 1066233423 1066233422#1 1066233422#0 46900072 1066249908 461590500#4 461590500#5 1242300749 472795411#2"/>
    </person>
    <person id="ped38" type="ped_pedestrian" depart="66.84">
        <walk edges="-329119149#2 329119149#0 329054396#0 329054396#1 329054396#2 -329054396#3 -329119155#0 703175157 388808405#1 388808405#0 228175046#2 228175046#1 228175046#0 962974834 228174909#1 228174909#0 962974836 962974837#0 228112616#3 228376063#2"/>
    </person>
    <person id="ped40" type="ped_pedestrian" depart="70.36">
        <walk edges="370164951#2 962063453#1 962063453#0 962701007#0 962063451#0 962063451#1 962063451#2 962063448#3 962063448#4 962063448#5 435243574#0 -42419097#3 228186713#1 966307809#0 228186713#2 -783216749#1"/>
    </person>
    <person id="ped44" type="ped_pedestrian" depart="77.39">
        <walk edges="1242300742#1 472795411#3 472795410 461590500#3 1066249908 46900072 1066233422#0 1066233422#1 1066233423 46900074 1066233417#0 1066233419 1066233420 1066233418#0 1066233418#1 1066233418#2 1066233418#3 1066233418#4 1245570522 1066249912#1 1066249912#0 228376069#1 -228174910#1 795083585#0 -228174911#6"/>
    </person>
    <person id="ped46" type="ped_pedestrian" depart="80.91">
        <walk edges="-27293697#3 27293697#2 -27293697#1 -27293697#0 964734221#1 964734221#0 -964734222#2 964734222#1 -964734222#0 962701062#1 962701064#1 228197730#1 228197730#2 228197730#3 962063447#1"/>
    </person>
    <person id="ped48" type="ped_pedestrian" depart="84.43">
        <walk edges="228197729#0 962063447#5 962063447#4 962063447#3 962063462 -956981264 -962701058#1 -964734222#0 964734222#1 -964734222#2 964734221#0 964734221#1 -27293697#0 -27293697#1 27293697#2 -27293697#3 -27293697#4 -27293697#5 -27293697#6 962692012 -962692013#3 -962692013#2 -962692013#1 -962692013#0"/>
    </person>
    <person id="ped49" type="ped_pedestrian" depart="86.19">
        <walk edges="-833048633 -140694516#5 1245570525 1245570526#1 1066249912#0 1066249912#1 1245570522 1066233418#4 1066233418#3 1066233418#2 1066233418#1 1066233418#0 1066233420 1066233419 1066233417#0 46900074 1066233423 1066233422#1 1066233422#0 46900072 1066249908 461590500#3 461590500#2 461590500#1 461590500#0 1242300760#1 1242300760#0"/>
    </person>
    <person id="ped51" type="ped_pedestrian" depart="89.70">
        <walk edges="140694516#1 228376067#1 -794148966#1 -329056669#0 329056669#2 4217308#1"/>
    </person>
    <person id="ped52" type="ped_pedestrian" depart="91.46">
        <walk edges="-962985961#1"/>
    </person>
    <person id="ped58" type="ped_pedestrian" depart="102.02">
        <walk edges="-327009356#0 327009355#1 327009351#1 -327009351#2 -327009351#3 327009351#4 -327009351#5 -962063465 962063447#0 962063447#1 228197730#3 228197730#2 228197730#1 962701064#1 962701062#1 -964734222#0 964734222#1 -964734222#2 964734221#0 964734221#1 -27293697#0 -27293697#1 27293697#2 -27293697#3 -27293697#4 -27293697#5 -27293697#6 962692012 -962692013#3 228345093#1"/>
    </person>
    <person id="ped61" type="ped_pedestrian" depart="107.29">
        <walk edges="228196665#1 228196665#2 228196665#3 962063464#10 962063464#11 962063464#12 962063464#13 962063464#14 962063464#15 962063448#0 145338249#1"/>
    </person>
    <person id="ped63" type="ped_pedestrian" depart="110.81">
        <walk edges="228345093#0 228345093#1 -962692013#3 962692012 -27293697#6 -27293697#5 -27293697#4 -27293697#3 27293697#2 -27293697#1 -27293697#0 964734221#1 964734221#0 -964734222#2 964734222#1 -964734222#0 -962701058#1 962701060 962701056#1 962701054#1 962701052#1 962701051#0 962701051#1 962701048#1 962701046#1 962701044#1 962701042#0 962701042#1 962701040#0 962701040#1 962701038#1 962701036#1 -962701034 370164956#1 962378923 962701033 962701032#1"/>
    </person>
    <person id="ped75" type="ped_pedestrian" depart="131.92">
        <walk edges="370164954#0 962063464#14 962063464#13 962063464#12 962063464#11 962063464#10 228196665#3 228196665#2 228196665#1 962701019#2 962701019#1 962701019#0 228197153#0 962701022#1 962701022#0 962701024#1"/>
    </person>
    <person id="ped87" type="ped_pedestrian" depart="153.02">
        <walk edges="962701042#0 962701044#1 962701046#1 962701048#1 962701051#1 962701051#0"/>
    </person>
    <person id="ped93" type="ped_pedestrian" depart="163.58">
        <walk edges="-329056669#4 228175046#0 228175046#1 228175046#2 388808405#0"/>
    </person>
    <person id="ped99" type="ped_pedestrian" depart="174.13">
        <walk edges="1242300742#1 472795411#3 472795410 461590500#3 1066249908 46900072 1066233422#0 1066233422#1 1066233423 46900074 1066233417#0 1066233419 1066233420 1066233418#0 1066233418#1 1066233418#2 1066233418#3 1066233418#4 1245570522 1066249912#1 1066249912#0 1245570526#1 228112616#1 228112616#3 962974837#0 962974836 228174909#0 228174909#1 962974834 228175046#0 228175046#1 962977479"/>
    </person>
    <person id="ped100" type="ped_pedestrian" depart="175.89">
        <walk edges="962063452 962701010#1 962701008#1 962701013#1 962701013#0 962701014 962701015#1 962701016#1 962701017 228196665#0 962701019#2 962701019#1 962701019#0 228197153#0 962701022#1 962701022#0 962701024#1 962701024#0 962701025 962701026#1 962701028#1 962701030#1 962701031#1"/>
    </person>
    <person id="ped105" type="ped_pedestrian" depart="184.68">
        <walk edges="962063464#10 962063464#9 962063464#8 962063464#7 962063464#6 962063464#5 962063464#4 962063464#3 962063464#2 962063464#1 962063447#9 962063447#8 962063447#7 962063447#6 228197729#0 228197729#1 228197729#2 228197729#3 962701050 962701052#1"/>
    </person>
    <person id="ped108" type="ped_pedestrian" depart="189.96">
        <walk edges="962063457 962063464#6 962063464#5 962063464#4 962063464#3 962063464#2 962378924 956679504#2 956679504#1 370164956#1 -962701034 962701036#1"/>
    </person>
    <person id="ped110" type="ped_pedestrian" depart="193.48">
        <walk edges="962701033 962701032#1 962701029 962701030#0"/>
    </person>
    <person id="ped116" type="ped_pedestrian" depart="204.03">
        <walk edges="966307818#1 966307816#1 966307814#1 963761651 966307809#0 228186713#2 -783216749#1"/>
    </person>
    <person id="ped118" type="ped_pedestrian" depart="207.55">
        <walk edges="-329119138 -329119139 160970020 703175157 388808405#1 388808405#0 228175046#2 228175046#1 228175046#0 962974834 228174909#1 228174909#0 962974836 962974837#0 228112616#3 228376063#2"/>
    </person>
    <person id="ped133" type="ped_pedestrian" depart="233.93">
        <walk edges="962063464#2 956979806#3 956979806#2 956979806#1"/>
    </person>
    <person id="ped139" type="ped_pedestrian" depart="244.49">
        <walk edges="-42419097#4 228186712#1 228186712#2 966307822#0 -30969253#3 -30969253#4 -30969253#5 -30969253#6 -30969253#7 963761651 966307813#1"/>
    </person>
    <person id="ped146" type="ped_pedestrian" depart="256.80">
        <walk edges="962701064#0 962701064#1 962701062#1 -962701058#1 -956981264 962063462 962063447#3 962063447#4 962063447#5 962063447#6 962063447#7 956679503#3 956679503#2"/>
    </person>
    <person id="ped149" type="ped_pedestrian" depart="262.07">
        <walk edges="1066233418#4 1245570522 1066249912#1 1066249912#0 1245570526#1 1245570525"/>
    </person>
    <person id="ped151" type="ped_pedestrian" depart="265.59">
        <walk edges="-963021876#0 -963021876#1 435243574#0 962063448#5 962063448#4 962063448#3 962063448#2 461590499#1 624273826#1"/>
    </person>
    <person id="ped153" type="ped_pedestrian" depart="269.11">
        <walk edges="228197155#3 962701022#0 962701022#1 228197153#0 962701019#0 962701019#1 962701019#2 228196665#1 228196665#2 228196665#3 962063464#10 962063464#11 962063464#12 962063464#13 962063464#14 962063464#15 962063448#0 962063448#1 962063448#2 962063448#3 962063448#4 962063448#5 435243574#0 963021876#1"/>
    </person>
    <person id="ped155" type="ped_pedestrian" depart="272.63">
        <walk edges="962701019#2 962701019#1 962701019#0 228197153#0 228197153#1 228197153#2 228197153#3 962063464#8 962063464#7 962063464#6 962063464#5 962063464#4 962063464#3 962063464#2 962063464#1 962063447#9 962063447#8 962063447#7 962063447#6"/>
    </person>
    <person id="ped156" type="ped_pedestrian" depart="274.39">
        <walk edges="962701018#1 228196665#1 228196665#2 228196665#3 962063464#10 962063464#11 962063464#12 962063464#13 962063464#14 962063464#15 962063448#0 962063448#1 962063448#2 962063448#3 962063448#4 962063449#2 962063449#1 962063449#0 966307802#1 966307804#1 966307807#1"/>
    </person>
    <person id="ped157" type="ped_pedestrian" depart="276.15">
        <walk edges="228197155#1 228197155#0 962063464#7 962063464#6 962063464#5 962063464#4 962063464#3 962063464#2 962378924 956679504#2"/>
    </person>
    <person id="ped161" type="ped_pedestrian" depart="283.18">
        <walk edges="228196665#3 962063464#10 962063464#11 962063464#12 962063464#13 962063464#14 962063464#15 962063448#0 962063448#1 962063448#2 962063448#3 962063448#4 962063448#5 435243574#0 -42419097#3 -42419097#4"/>
    </person>
    <person id="ped162" type="ped_pedestrian" depart="284.94">
        <walk edges="461590500#3 1066249908 46900072 1066233422#0 1066233422#1 1066233423 46900074 1066233417#0 1066233419 1066233420 1066233418#0 1066233418#1 1066233418#2 1066233418#3 1066233418#4 1245570522 1066249912#1 1066249912#0 1245570526#1 228112616#1 228112616#3 962974837#0 962974836 228174909#0 228174909#1 962974834 228175046#0 228175046#1 228175046#2 388808405#0 388808405#1 -160970022#2 -160970022#1"/>
    </person>
    <person id="ped166" type="ped_pedestrian" depart="291.98">
        <walk edges="956979806#2 956979806#3 962063464#3 962063464#4 962063464#5 962063464#6 962063464#7 962063464#8 962063464#9 962063464#10 962063464#11 228196663#3 228196663#2 228196663#1"/>
    </person>
    <person id="ped173" type="ped_pedestrian" depart="304.29">
        <walk edges="543774609#1 -327009351#3 327009351#4 -327009351#5 -962063465 962063447#0 962063447#1 962063447#2 962063447#3 962063447#4 962063447#5 962063447#6 962063447#7"/>
    </person>
    <person id="ped174" type="ped_pedestrian" depart="306.05">
        <walk edges="-4217308#3 -4217308#2 -4217308#1 329056669#4 -228174911#1 228174911#3 228174911#5 228174911#6 795083585#0 -228174910#1 228376069#1 1066249912#0 1066249912#1 1245570522 1066233418#4 1066233418#3 1066233418#2 1066233418#1 1066233418#0 1066233420 1066233419 1066233417#0 46900074 1066233423 1066233422#1 1066233422#0 46900072 1066249908 461590500#3 461590500#2 461590500#1 461590500#0"/>
    </person>
    <person id="ped175" type="ped_pedestrian" depart="307.81">
        <walk edges="95580769#1 963021875#1 -968722837 -657201983#0 963021874#2 962063448#5 962063448#4 962063448#3 962063451#2 962063451#1 962063451#0 962701007#0 962063453#0 962063453#1 370164942#0 370164942#1 962063452 -370164929#0"/>
    </person>
    <person id="ped176" type="ped_pedestrian" depart="309.57">
        <walk edges="-329119138 -329119139 -160970020"/>
    </person>
    <person id="ped179" type="ped_pedestrian" depart="314.84">
        <walk edges="657201984 -657201983#2 -657201983#1 -657201983#0 968722839 -42419097#3 228186713#1 -30969253#7 -30969253#6 -30969253#5 -30969253#4"/>
    </person>
    <person id="ped183" type="ped_pedestrian" depart="321.88">
        <walk edges="370164954#3 962063453#0 962701007#0 962701007#1 962701006#1 962701005#1 962701004#1 962701002#1 966307802#1 966307804#1 -164103416#0 164103416#0"/>
    </person>
    <person id="ped199" type="ped_pedestrian" depart="350.02">
        <walk edges="-30969346 374883656#0 -164919857#7 164919857#8 -164919857#9 -164919857#10 -164919857#11 164919857#12 164919857#13 164919857#14 963061936#2 799510780#1"/>
    </person>
    <person id="ped203" type="ped_pedestrian" depart="357.06">
        <walk edges="943013391 -30106156#0 140694516#1 140694516#0 144893211"/>
    </person>
    <person id="ped209" type="ped_pedestrian" depart="367.61">
        <walk edges="1066249904 1066233418#1 1066233418#2 1066233418#3 1066233418#4 1245570522 1066249912#1 1066249912#0 228376069#1 -228174910#1 795083585#0 228174911#6 228174911#5 228174911#3 -228174911#1 329056669#4 -329056669#2"/>
    </person>
    <person id="ped210" type="ped_pedestrian" depart="369.37">
        <walk edges="-787846137#0 -787846137#1 329119149#2 329119149#0 329054396#0 -968082190"/>
    </person>
    <person id="ped213" type="ped_pedestrian" depart="374.64">
        <walk edges="962701030#0 956979806#0 956979806#1 956979806#2 956979806#3 962063464#3 962063464#4 962063464#5 962063464#6 962063464#7 962063464#8 962063464#9 962063464#10 962063464#11 962063464#12 962063464#13 962063464#14 370164954#0 370164954#1"/>
    </person>
    <person id="ped215" type="ped_pedestrian" depart="378.16">
        <walk edges="962063464#6 228197154#0"/>
    </person>
    <person id="ped219" type="ped_pedestrian" depart="385.20">
        <walk edges="969993416#1 164919857#14 164919857#13 164919857#12 -164919857#11 -164919857#10 -164919857#9 164919857#8 -164919857#7 374883656#0 30969346 -371430737#1 -371430737#0"/>
    </person>
    <person id="ped222" type="ped_pedestrian" depart="390.47">
        <walk edges="461590500#2 1242300742#0 1242300742#1 472795411#4 472795411#5 461590502 461590500#10"/>
    </person>
    <person id="ped226" type="ped_pedestrian" depart="397.51">
        <walk edges="-963021876#1 968722839 -657201983#0 -657201983#1 657201983#2"/>
    </person>
    <person id="ped229" type="ped_pedestrian" depart="402.79">
        <walk edges="-4217308#1 329056669#4 -228174911#1 228174911#3 228174911#5 228174911#6 795083585#0 -228174910#1 228376069#1 1066249912#0 1066249912#1 1245570522 1066233418#4 1066233418#3 1066233418#2 1066233418#1 1066233418#0 1066233420 1066233419 1066233417#0 46900074 1066233423 1066233422#1 1066233422#0 46900072 1066249908 461590500#4 1242300750#2 1242300751#1"/>
    </person>
    <person id="ped234" type="ped_pedestrian" depart="411.58">
        <walk edges="1242300752 1242300751#1 1242300750#2 461590500#4 1066249908 46900072 1066233422#0 1066233422#1 1066233423 46900074 1066233417#0 1066233419 1066233420 1066233418#0 1066233418#1 1066233418#2"/>
    </person>
    <person id="ped239" type="ped_pedestrian" depart="420.38">
        <walk edges="144893214#2 144893214#1"/>
    </person>
    <person id="ped243" type="ped_pedestrian" depart="427.41">
        <walk edges="962063464#12 962063464#13 962063464#14 962063464#15 224431202#0 4217307#1 4217307#0 381639474#1 381639474#0"/>
    </person>
    <person id="ped257" type="ped_pedestrian" depart="452.04">
        <walk edges="962701041 962701040#0 962701040#1 962701038#1 962701036#1 962701034"/>
    </person>
    <person id="ped261" type="ped_pedestrian" depart="459.07">
        <walk edges="1066249904 1066233418#0 1066233420 1066233419 1066233417#0 46900074 1066233423 1066233422#1 1066233422#0 46900072 1066249908 461590500#3 472795410 472795411#3 472795411#4 1242300740#1 1242300745#0"/>
    </person>
    <person id="ped262" type="ped_pedestrian" depart="460.83">
        <walk edges="381632765 381632766 381632775#1 381632773#0"/>
    </person>
    <person id="ped263" type="ped_pedestrian" depart="462.59">
        <walk edges="228376738#1 388808406 329119138 329119139 160970020 703175157 388808405#1 388808405#0 228175046#2 228175046#1 228175046#0 962974834 228174909#1 228174909#0 962974836 962974837#0 -795083585#1 228174910#0 1245570527#1"/>
    </person>
    <person id="ped264" type="ped_pedestrian" depart="464.35">
        <walk edges="-783216749#1 228186713#2 966307809#0 228186713#1 -42419097#3 435243574#0 962063448#5 962063448#4 962063448#3 962063448#2 461590499#1 624273826#1 624717004 624273827#1 624717002#0 624273828"/>
    </person>
    <person id="ped267" type="ped_pedestrian" depart="469.62">
        <walk edges="917976500#3 -370164929#0 962063452 370164942#1 370164942#0 962063453#1 962063453#0 962701007#0 962063451#0 962063451#1 962063451#2 962063448#3 962063448#4 962063448#5 963021874#2 657201983#0"/>
    </person>
    <person id="ped268" type="ped_pedestrian" depart="471.38">
        <walk edges="962063464#10 962063464#11 962063464#12 228196664#3"/>
    </person>
    <person id="ped274" type="ped_pedestrian" depart="481.94">
        <walk edges="962701017 228196665#0 962701019#2 962701019#1 962701019#0 228197153#0 962701022#1 962701022#0 962701024#1 962701024#0 962701025 962701026#1 962701028#1 962701030#1"/>
    </person>
    <person id="ped275" type="ped_pedestrian" depart="483.70">
        <walk edges="228174909#1 228174909#0 962974836 962974837#0 228112616#3 228112616#1 1245570526#1 1066249912#0 1066249912#1 1245570522 1066233418#4 1066233418#3 1066233418#2 1066233418#1 1066233418#0 1066233420 1066233419 1066233417#0 46900074 1066233423 1066233422#1 1066233422#0 46900072 1066249908 461590500#3 472795410 472795411#3 472795411#4 1242300740#1 1242300740#0 461590500#11 1242300775"/>
    </person>
    <person id="ped277" type="ped_pedestrian" depart="487.21">
        <walk edges="962701033 962378923 370164956#1 -962701034 962701036#1 962701038#1 962701040#1 962701040#0 962701042#1 962701042#0 962701044#1 962701046#1 962701048#1 962701051#1 962701051#0 962701052#1 962701054#1 962701056#1 962701060 -962701058#1 -964734222#0 964734222#1 -964734222#2 964734221#0 964734221#1 -27293697#0 -27293697#1 27293697#2 -27293697#3 -27293697#4 -27293697#5 -27293697#6 164919857#1 228198314#2 -164919857#7 164919857#8 -164919857#9 -164919857#10 -164919857#11 164919857#12 164919857#13 -164919857#14"/>
    </person>
    <person id="ped286" type="ped_pedestrian" depart="503.04">
        <walk edges="381639474#2 4217307#0 4217307#1 224431202#0 962063464#15 962063464#14 962063464#13 962063464#12 962063464#11 962063456"/>
    </person>
    <person id="ped291" type="ped_pedestrian" depart="511.84">
        <walk edges="413500589#1 413500589#2 413500589#3 -413500589#4 -413500589#5 -413500589#6 413500589#8 413500595#0 413500599#0 413500603#1"/>
    </person>
    <person id="ped300" type="ped_pedestrian" depart="527.67">
        <walk edges="46900075 1066233417#1 1066233417#0 46900074 1066233423 1066233422#1 1066233422#0 46900072 1066249908 461590500#4 1242300750#2 1242300751#1 1242300752"/>
    </person>
    <person id="ped305" type="ped_pedestrian" depart="536.46">
        <walk edges="962063461 962063447#4 962063447#5 962063447#6 962063447#7 962063447#8 962063447#9 962063464#1 962378924 956679504#2 956679504#1"/>
    </person>
    <person id="ped308" type="ped_pedestrian" depart="541.74">
        <walk edges="966307814#1 963761651 228186713#1 -42419097#3 435243574#0 962063448#5 962063448#4 962063448#3 962063448#2 962063448#1 962063448#0 962063464#15 962063464#14 962063464#13 962063464#12"/>
    </person>
    <person id="ped309" type="ped_pedestrian" depart="543.50">
        <walk edges="488124115 -413500594#0 413500589#8 -413500589#6 -413500589#5 -413500589#4 413500589#3 413500589#2 -413500589#1 413500612"/>
    </person>
    <person id="ped315" type="ped_pedestrian" depart="554.05">
        <walk edges="1185388152 -1185388151#0 -843380105#4 843380105#2 843380105#1 843380105#0 963060009#5 963060009#4 164919857#15 164919857#14 164919857#13 164919857#12 -164919857#11 -164919857#10 -164919857#9 164919857#8 -164919857#7 228198314#2 164919857#1 -27293697#6 -27293697#5 -27293697#4 -27293697#3 27293697#2 -27293697#1 -27293697#0 964734221#1 964734221#0 -964734222#2 964734222#1 -964734222#0 962701062#1 962701064#1 228197730#1 228197730#2 228197730#3 962063447#1 962063447#0 228197728#2"/>
    </person>
    <person id="ped318" type="ped_pedestrian" depart="559.33">
        <walk edges="-327009356#1 327009355#1 327009351#1 -327009351#2 -327009351#3 327009351#4 -327009351#5 -962063465 962063447#0 962063447#1 228197730#3 228197730#2 228197730#1 962701064#0"/>
    </person>
    <person id="ped328" type="ped_pedestrian" depart="576.92">
        <walk edges="4217308#1 329056669#2 -329056669#0 -794148966#1 228376067#1 140694516#0 -144893211 -144893214#0 -144893214#1"/>
    </person>
    <person id="ped330" type="ped_pedestrian" depart="580.43">
        <walk edges="-27293697#2 -27293697#1 -27293697#0 964734221#1 964734221#0 -964734222#2 964734222#1 -964734222#0 -962701058#1 -956981264 962063462 962063447#3 962063447#4 962063447#5"/>
    </person>
    <person id="ped337" type="ped_pedestrian" depart="592.75">
        <walk edges="-968082191#0 -329054396#3 -329119155#0 703175157 228376067#1 140694516#0"/>
    </person>
    <person id="ped338" type="ped_pedestrian" depart="594.51">
        <walk edges="943013391 -30106156#0 388808405#1 703175157 -329119155#0 -329054396#3 329054396#2 329054396#1 329054396#0 228376742 363526313"/>
    </person>
    <person id="ped345" type="ped_pedestrian" depart="606.82">
        <walk edges="624273826#1 461590499#1 962063448#1 962063448#0 962063464#15 962063464#14 962063464#13 962063464#12 962063464#11 962063464#10 228196665#3 228196665#2 228196665#1 962701019#2 962701019#1 962701019#0 228197153#0 962701022#1 962701022#0 962701024#1"/>
    </person>
    <person id="ped346" type="ped_pedestrian" depart="608.58">
        <walk edges="228376067#0 228376067#1 703175157 -329119155#0 -329054396#3 968082191#0 -968082191#1"/>
    </person>
    <person id="ped351" type="ped_pedestrian" depart="617.37">
        <walk edges="413500603#1 413500599#0 413500595#0 413500589#8 413500589#6"/>
    </person>
    <person id="ped352" type="ped_pedestrian" depart="619.13">
        <walk edges="956679503#0 962701042#0 962701042#1 962701040#0"/>
    </person>
    <person id="ped354" type="ped_pedestrian" depart="622.65">
        <walk edges="4217308#6 4217308#7 962701024#0 962701025 962701026#1 962701028#1 962701030#1 962701031#1 962701032#1 962701033 962378923 370164956#1 -962701034 962701036#1 962701038#1 962701040#1 962701040#0 962701042#1 962701042#0 962701044#1 962701046#1 962701048#1 962701051#1 962701051#0 962701052#1 962701054#1 962701056#1 962701060 -962701058#1 -964734222#0 964734222#1 -964734222#2 964734221#0 964734221#1 -27293697#0 -27293697#1 27293697#2 -27293697#3 -27293697#4 -27293697#5 -27293697#6 164919857#1 228198314#2 164919857#7"/>
    </person>
    <person id="ped358" type="ped_pedestrian" depart="629.68">
        <walk edges="962701010#1 962063452 370164942#1 370164942#0 962063453#1 962063453#0 962701007#0 962063451#0 962063451#1 962063451#2 962063448#3 962063448#4 962063448#5 963021874#2 -657201983#0 968722837"/>
    </person>
    <person id="ped360" type="ped_pedestrian" depart="633.20">
        <walk edges="46900072 1066233422#0 1066233422#1 1066233423 46900074 1066233417#0 1066233419 1066233420 1066233418#0 1066233418#1 1066233418#2 1066233418#3 1066233418#4 1245570522 1066249912#1 1066249912#0 1245570526#1 228112616#1 228112616#3 962974837#0 962974836 228174909#0 228174909#1 962974834 228175046#0 228175046#1 228175046#2 388808405#0 388808405#1 -160970022#2 -160970022#1"/>
    </person>
    <person id="ped365" type="ped_pedestrian" depart="642.00">
        <walk edges="228197155#3 962701022#0 962701022#1 228197153#0 962701019#0 962701019#1 962701019#2 228196665#1 228196665#2 228196665#3 962063464#10 962063464#11 962063464#12 962063464#13 962063464#14 962063464#15 962063448#0 962063448#1 962063448#2 962063448#3 962063448#4 962063449#2 962063449#1 962063449#0 966307802#1 966307804#1 -164103416#0 164103416#0"/>
    </person>
    <person id="ped371" type="ped_pedestrian" depart="652.55">
        <walk edges="956679504#1 370164956#1 -962701034 962701036#1 962701038#1 962701040#1 962701040#0 962701042#1 962701042#0 962701044#1 962701046#1 962701048#1 962701051#1 962701051#0 962701052#1 962701054#1 962701056#1 962701060 -962701058#1 -964734222#0 964734222#1 -964734222#2 964734221#0 964734221#1 -27293697#0 -27293697#1 27293697#2 -27293697#3 -27293697#4 -27293697#5 -27293697#6 962692012 -962692013#3 228345093#1 -363538900#1"/>
    </person>
    <person id="ped372" type="ped_pedestrian" depart="654.31">
        <walk edges="228197730#2 228197730#1 962701064#1 962701062#1 -964734222#0 964734222#1 -964734222#2 964734221#0 964734221#1 -27293697#0 -27293697#1 27293697#2 -27293697#3 -27293697#4 -27293697#5 -27293697#6 164919857#1 228198314#2 -164919857#7 164919857#8 -164919857#9 -164919857#10 -164919857#11 164919857#12 164919857#13 164919857#14 164919857#15 963060009#4 963060009#5 843380105#0 843380105#1 1185388147#0"/>
    </person>
    <person id="ped376" type="ped_pedestrian" depart="661.34">
        <walk edges="-1185388147#1 -1185388147#0 843380105#1 843380105#0 963060009#5 963060009#4 164919857#15 164919857#14 164919857#13 164919857#12 -164919857#11 -164919857#10 -164919857#9 164919857#8 -164919857#7 228198314#2 164919857#1 -27293697#6 -27293697#5 -27293697#4 -27293697#3 27293697#2 -27293697#1 -27293697#0 964734221#1 964734221#0 -964734222#2 964734222#1 -964734222#0 -962701058#1 962701060 962701056#1 962701054#1 962701052#1 962701051#0 962701051#1 962701048#1 962701046#1 962701044#1 962701042#0 962701042#1 962701040#0 962701040#1 962701038#1 962701036#1 -962701034 370164956#1 956679504#1"/>
    </person>
    <person id="ped377" type="ped_pedestrian" depart="663.10">